<?xml version="1.0"?>

<!-- generated on Wed Apr 17 14:38:30 2013 by SUMO duarouter Version 0.16.0
<?xml version="1.0" encoding="UTF-8"?>

<configuration xmlns:xsi="http://www.w3.org/2001/XMLSchema-instance" xsi:noNamespaceSchemaLocation="http://sumo.sf.net/xsd/duarouterConfiguration.xsd">

    <input>
        <net-file value="../grid6_4.net.xml"/>
        <flow-files value="grid6_4.flo.xml"/>
    </input>

    <output>
        <output-file value="grid6_4.rou.xml"/>
        <vtype-output value=""/>
    </output>

    <time>
        <begin value="0"/>
        <end value="200"/>
    </time>

</configuration>
-->

<routes xmlns:xsi="http://www.w3.org/2001/XMLSchema-instance" xsi:noNamespaceSchemaLocation="http://sumo.sf.net/xsd/routes_file.xsd">
    <vehicle id="F00_0" depart="0.00" departLane="random">
        <route edges="L1913 L1307 L0701"/>
    </vehicle>
    <vehicle id="F01_0" depart="0.00" departLane="random">
        <route edges="L0107 L0713 L1319"/>
    </vehicle>
    <vehicle id="F02_0" depart="0.00" departLane="random">
        <route edges="L0102 L0203 L0304 L0405 L0506"/>
    </vehicle>
    <vehicle id="F03_0" depart="0.00" departLane="random">
        <route edges="L1211 L1110 L1009 L0908 L0807"/>
    </vehicle>
    <vehicle id="F04_0" depart="0.00" departLane="random">
        <route edges="L1314 L1415 L1516 L1617 L1718"/>
    </vehicle>
    <vehicle id="F05_0" depart="0.00" departLane="random">
        <route edges="L2423 L2322 L2221 L2120 L2019"/>
    </vehicle>
    <vehicle id="F06_0" depart="0.00" departLane="random">
        <route edges="L0208 L0814 L1420"/>
    </vehicle>
    <vehicle id="F075_0" depart="0.00" departLane="random">
        <route edges="L2115 L1509 L0903"/>
    </vehicle>
    <vehicle id="F07_0" depart="0.00" departLane="random">
        <route edges="L0309 L0915 L1521"/>
    </vehicle>
    <vehicle id="F08_0" depart="0.00" departLane="random">
        <route edges="L2216 L1610 L1004"/>
    </vehicle>
    <vehicle id="F09_0" depart="0.00" departLane="random">
        <route edges="L0511 L1117 L1723"/>
    </vehicle>
    <vehicle id="F10_0" depart="0.00" departLane="random">
        <route edges="L0612 L1218 L1824"/>
    </vehicle>
    <vehicle id="F11_0" depart="0.00" departLane="random">
        <route edges="L2418 L1812 L1206"/>
    </vehicle>
    <vehicle id="F13_0" depart="0.00" departLane="random">
        <route edges="L0612 L1211 L1110 L1009 L0908 L0807 L0713 L1319"/>
    </vehicle>
    <vehicle id="F04_1" depart="1.00" departLane="random">
        <route edges="L1314 L1415 L1516 L1617 L1718"/>
    </vehicle>
    <vehicle id="F04_2" depart="3.00" departLane="random">
        <route edges="L1314 L1415 L1516 L1617 L1718"/>
    </vehicle>
    <vehicle id="F04_3" depart="4.00" departLane="random">
        <route edges="L1314 L1415 L1516 L1617 L1718"/>
    </vehicle>
    <vehicle id="F04_4" depart="5.00" departLane="random">
        <route edges="L1314 L1415 L1516 L1617 L1718"/>
    </vehicle>
    <vehicle id="F04_5" depart="6.00" departLane="random">
        <route edges="L1314 L1415 L1516 L1617 L1718"/>
    </vehicle>
    <vehicle id="F01_1" depart="7.00" departLane="random">
        <route edges="L0107 L0713 L1319"/>
    </vehicle>
    <vehicle id="F13_1" depart="7.00" departLane="random">
        <route edges="L0612 L1211 L1110 L1009 L0908 L0807 L0713 L1319"/>
    </vehicle>
    <vehicle id="F04_6" depart="8.00" departLane="random">
        <route edges="L1314 L1415 L1516 L1617 L1718"/>
    </vehicle>
    <vehicle id="F04_7" depart="9.00" departLane="random">
        <route edges="L1314 L1415 L1516 L1617 L1718"/>
    </vehicle>
    <vehicle id="F00_1" depart="10.00" departLane="random">
        <route edges="L1913 L1307 L0701"/>
    </vehicle>
    <vehicle id="F02_1" depart="10.00" departLane="random">
        <route edges="L0102 L0203 L0304 L0405 L0506"/>
    </vehicle>
    <vehicle id="F03_1" depart="10.00" departLane="random">
        <route edges="L1211 L1110 L1009 L0908 L0807"/>
    </vehicle>
    <vehicle id="F04_8" depart="10.00" departLane="random">
        <route edges="L1314 L1415 L1516 L1617 L1718"/>
    </vehicle>
    <vehicle id="F05_1" depart="10.00" departLane="random">
        <route edges="L2423 L2322 L2221 L2120 L2019"/>
    </vehicle>
    <vehicle id="F06_1" depart="10.00" departLane="random">
        <route edges="L0208 L0814 L1420"/>
    </vehicle>
    <vehicle id="F075_1" depart="10.00" departLane="random">
        <route edges="L2115 L1509 L0903"/>
    </vehicle>
    <vehicle id="F07_1" depart="10.00" departLane="random">
        <route edges="L0309 L0915 L1521"/>
    </vehicle>
    <vehicle id="F08_1" depart="10.00" departLane="random">
        <route edges="L2216 L1610 L1004"/>
    </vehicle>
    <vehicle id="F09_1" depart="10.00" departLane="random">
        <route edges="L0511 L1117 L1723"/>
    </vehicle>
    <vehicle id="F10_1" depart="10.00" departLane="random">
        <route edges="L0612 L1218 L1824"/>
    </vehicle>
    <vehicle id="F11_1" depart="10.00" departLane="random">
        <route edges="L2418 L1812 L1206"/>
    </vehicle>
    <vehicle id="F04_9" depart="11.00" departLane="random">
        <route edges="L1314 L1415 L1516 L1617 L1718"/>
    </vehicle>
    <vehicle id="F01_2" depart="13.00" departLane="random">
        <route edges="L0107 L0713 L1319"/>
    </vehicle>
    <vehicle id="F04_10" depart="13.00" departLane="random">
        <route edges="L1314 L1415 L1516 L1617 L1718"/>
    </vehicle>
    <vehicle id="F13_2" depart="13.00" departLane="random">
        <route edges="L0612 L1211 L1110 L1009 L0908 L0807 L0713 L1319"/>
    </vehicle>
    <vehicle id="F04_11" depart="14.00" departLane="random">
        <route edges="L1314 L1415 L1516 L1617 L1718"/>
    </vehicle>
    <vehicle id="F04_12" depart="15.00" departLane="random">
        <route edges="L1314 L1415 L1516 L1617 L1718"/>
    </vehicle>
    <vehicle id="F04_13" depart="16.00" departLane="random">
        <route edges="L1314 L1415 L1516 L1617 L1718"/>
    </vehicle>
    <vehicle id="F04_14" depart="18.00" departLane="random">
        <route edges="L1314 L1415 L1516 L1617 L1718"/>
    </vehicle>
    <vehicle id="F04_15" depart="19.00" departLane="random">
        <route edges="L1314 L1415 L1516 L1617 L1718"/>
    </vehicle>
    <vehicle id="F00_2" depart="20.00" departLane="random">
        <route edges="L1913 L1307 L0701"/>
    </vehicle>
    <vehicle id="F01_3" depart="20.00" departLane="random">
        <route edges="L0107 L0713 L1319"/>
    </vehicle>
    <vehicle id="F02_2" depart="20.00" departLane="random">
        <route edges="L0102 L0203 L0304 L0405 L0506"/>
    </vehicle>
    <vehicle id="F03_2" depart="20.00" departLane="random">
        <route edges="L1211 L1110 L1009 L0908 L0807"/>
    </vehicle>
    <vehicle id="F04_16" depart="20.00" departLane="random">
        <route edges="L1314 L1415 L1516 L1617 L1718"/>
    </vehicle>
    <vehicle id="F05_2" depart="20.00" departLane="random">
        <route edges="L2423 L2322 L2221 L2120 L2019"/>
    </vehicle>
    <vehicle id="F06_2" depart="20.00" departLane="random">
        <route edges="L0208 L0814 L1420"/>
    </vehicle>
    <vehicle id="F075_2" depart="20.00" departLane="random">
        <route edges="L2115 L1509 L0903"/>
    </vehicle>
    <vehicle id="F07_2" depart="20.00" departLane="random">
        <route edges="L0309 L0915 L1521"/>
    </vehicle>
    <vehicle id="F08_2" depart="20.00" departLane="random">
        <route edges="L2216 L1610 L1004"/>
    </vehicle>
    <vehicle id="F09_2" depart="20.00" departLane="random">
        <route edges="L0511 L1117 L1723"/>
    </vehicle>
    <vehicle id="F10_2" depart="20.00" departLane="random">
        <route edges="L0612 L1218 L1824"/>
    </vehicle>
    <vehicle id="F11_2" depart="20.00" departLane="random">
        <route edges="L2418 L1812 L1206"/>
    </vehicle>
    <vehicle id="F13_3" depart="20.00" departLane="random">
        <route edges="L0612 L1211 L1110 L1009 L0908 L0807 L0713 L1319"/>
    </vehicle>
    <vehicle id="F04_17" depart="21.00" departLane="random">
        <route edges="L1314 L1415 L1516 L1617 L1718"/>
    </vehicle>
    <vehicle id="F04_18" depart="23.00" departLane="random">
        <route edges="L1314 L1415 L1516 L1617 L1718"/>
    </vehicle>
    <vehicle id="F04_19" depart="24.00" departLane="random">
        <route edges="L1314 L1415 L1516 L1617 L1718"/>
    </vehicle>
    <vehicle id="F04_20" depart="25.00" departLane="random">
        <route edges="L1314 L1415 L1516 L1617 L1718"/>
    </vehicle>
    <vehicle id="rAmb_0" depart="25.00" color="0.00,1.00,0.00">
        <route color="0.00,1.00,0.00" edges="L1913 L1314 L1415 L1516 L1617 L1718 L1812 L1206"/>
    </vehicle>
    <vehicle id="F04_21" depart="26.00" departLane="random">
        <route edges="L1314 L1415 L1516 L1617 L1718"/>
    </vehicle>
    <vehicle id="F01_4" depart="27.00" departLane="random">
        <route edges="L0107 L0713 L1319"/>
    </vehicle>
    <vehicle id="F13_4" depart="27.00" departLane="random">
        <route edges="L0612 L1211 L1110 L1009 L0908 L0807 L0713 L1319"/>
    </vehicle>
    <vehicle id="F04_22" depart="28.00" departLane="random">
        <route edges="L1314 L1415 L1516 L1617 L1718"/>
    </vehicle>
    <vehicle id="F04_23" depart="29.00" departLane="random">
        <route edges="L1314 L1415 L1516 L1617 L1718"/>
    </vehicle>
    <vehicle id="F00_3" depart="30.00" departLane="random">
        <route edges="L1913 L1307 L0701"/>
    </vehicle>
    <vehicle id="F02_3" depart="30.00" departLane="random">
        <route edges="L0102 L0203 L0304 L0405 L0506"/>
    </vehicle>
    <vehicle id="F03_3" depart="30.00" departLane="random">
        <route edges="L1211 L1110 L1009 L0908 L0807"/>
    </vehicle>
    <vehicle id="F04_24" depart="30.00" departLane="random">
        <route edges="L1314 L1415 L1516 L1617 L1718"/>
    </vehicle>
    <vehicle id="F05_3" depart="30.00" departLane="random">
        <route edges="L2423 L2322 L2221 L2120 L2019"/>
    </vehicle>
    <vehicle id="F06_3" depart="30.00" departLane="random">
        <route edges="L0208 L0814 L1420"/>
    </vehicle>
    <vehicle id="F075_3" depart="30.00" departLane="random">
        <route edges="L2115 L1509 L0903"/>
    </vehicle>
    <vehicle id="F07_3" depart="30.00" departLane="random">
        <route edges="L0309 L0915 L1521"/>
    </vehicle>
    <vehicle id="F08_3" depart="30.00" departLane="random">
        <route edges="L2216 L1610 L1004"/>
    </vehicle>
    <vehicle id="F09_3" depart="30.00" departLane="random">
        <route edges="L0511 L1117 L1723"/>
    </vehicle>
    <vehicle id="F10_3" depart="30.00" departLane="random">
        <route edges="L0612 L1218 L1824"/>
    </vehicle>
    <vehicle id="F11_3" depart="30.00" departLane="random">
        <route edges="L2418 L1812 L1206"/>
    </vehicle>
    <vehicle id="F04_25" depart="31.00" departLane="random">
        <route edges="L1314 L1415 L1516 L1617 L1718"/>
    </vehicle>
    <vehicle id="F01_5" depart="33.00" departLane="random">
        <route edges="L0107 L0713 L1319"/>
    </vehicle>
    <vehicle id="F04_26" depart="33.00" departLane="random">
        <route edges="L1314 L1415 L1516 L1617 L1718"/>
    </vehicle>
    <vehicle id="F13_5" depart="33.00" departLane="random">
        <route edges="L0612 L1211 L1110 L1009 L0908 L0807 L0713 L1319"/>
    </vehicle>
    <vehicle id="F04_27" depart="34.00" departLane="random">
        <route edges="L1314 L1415 L1516 L1617 L1718"/>
    </vehicle>
    <vehicle id="F04_28" depart="35.00" departLane="random">
        <route edges="L1314 L1415 L1516 L1617 L1718"/>
    </vehicle>
    <vehicle id="F04_29" depart="36.00" departLane="random">
        <route edges="L1314 L1415 L1516 L1617 L1718"/>
    </vehicle>
    <vehicle id="F04_30" depart="38.00" departLane="random">
        <route edges="L1314 L1415 L1516 L1617 L1718"/>
    </vehicle>
    <vehicle id="F04_31" depart="39.00" departLane="random">
        <route edges="L1314 L1415 L1516 L1617 L1718"/>
    </vehicle>
    <vehicle id="F00_4" depart="40.00" departLane="random">
        <route edges="L1913 L1307 L0701"/>
    </vehicle>
    <vehicle id="F01_6" depart="40.00" departLane="random">
        <route edges="L0107 L0713 L1319"/>
    </vehicle>
    <vehicle id="F02_4" depart="40.00" departLane="random">
        <route edges="L0102 L0203 L0304 L0405 L0506"/>
    </vehicle>
    <vehicle id="F03_4" depart="40.00" departLane="random">
        <route edges="L1211 L1110 L1009 L0908 L0807"/>
    </vehicle>
    <vehicle id="F04_32" depart="40.00" departLane="random">
        <route edges="L1314 L1415 L1516 L1617 L1718"/>
    </vehicle>
    <vehicle id="F05_4" depart="40.00" departLane="random">
        <route edges="L2423 L2322 L2221 L2120 L2019"/>
    </vehicle>
    <vehicle id="F06_4" depart="40.00" departLane="random">
        <route edges="L0208 L0814 L1420"/>
    </vehicle>
    <vehicle id="F075_4" depart="40.00" departLane="random">
        <route edges="L2115 L1509 L0903"/>
    </vehicle>
    <vehicle id="F07_4" depart="40.00" departLane="random">
        <route edges="L0309 L0915 L1521"/>
    </vehicle>
    <vehicle id="F08_4" depart="40.00" departLane="random">
        <route edges="L2216 L1610 L1004"/>
    </vehicle>
    <vehicle id="F09_4" depart="40.00" departLane="random">
        <route edges="L0511 L1117 L1723"/>
    </vehicle>
    <vehicle id="F10_4" depart="40.00" departLane="random">
        <route edges="L0612 L1218 L1824"/>
    </vehicle>
    <vehicle id="F11_4" depart="40.00" departLane="random">
        <route edges="L2418 L1812 L1206"/>
    </vehicle>
    <vehicle id="F13_6" depart="40.00" departLane="random">
        <route edges="L0612 L1211 L1110 L1009 L0908 L0807 L0713 L1319"/>
    </vehicle>
    <vehicle id="F04_33" depart="41.00" departLane="random">
        <route edges="L1314 L1415 L1516 L1617 L1718"/>
    </vehicle>
    <vehicle id="F04_34" depart="43.00" departLane="random">
        <route edges="L1314 L1415 L1516 L1617 L1718"/>
    </vehicle>
    <vehicle id="F04_35" depart="44.00" departLane="random">
        <route edges="L1314 L1415 L1516 L1617 L1718"/>
    </vehicle>
    <vehicle id="F04_36" depart="45.00" departLane="random">
        <route edges="L1314 L1415 L1516 L1617 L1718"/>
    </vehicle>
    <vehicle id="F04_37" depart="46.00" departLane="random">
        <route edges="L1314 L1415 L1516 L1617 L1718"/>
    </vehicle>
    <vehicle id="F01_7" depart="47.00" departLane="random">
        <route edges="L0107 L0713 L1319"/>
    </vehicle>
    <vehicle id="F13_7" depart="47.00" departLane="random">
        <route edges="L0612 L1211 L1110 L1009 L0908 L0807 L0713 L1319"/>
    </vehicle>
    <vehicle id="F04_38" depart="48.00" departLane="random">
        <route edges="L1314 L1415 L1516 L1617 L1718"/>
    </vehicle>
    <vehicle id="F04_39" depart="49.00" departLane="random">
        <route edges="L1314 L1415 L1516 L1617 L1718"/>
    </vehicle>
    <vehicle id="F00_5" depart="50.00" departLane="random">
        <route edges="L1913 L1307 L0701"/>
    </vehicle>
    <vehicle id="F02_5" depart="50.00" departLane="random">
        <route edges="L0102 L0203 L0304 L0405 L0506"/>
    </vehicle>
    <vehicle id="F03_5" depart="50.00" departLane="random">
        <route edges="L1211 L1110 L1009 L0908 L0807"/>
    </vehicle>
    <vehicle id="F04_40" depart="50.00" departLane="random">
        <route edges="L1314 L1415 L1516 L1617 L1718"/>
    </vehicle>
    <vehicle id="F05_5" depart="50.00" departLane="random">
        <route edges="L2423 L2322 L2221 L2120 L2019"/>
    </vehicle>
    <vehicle id="F06_5" depart="50.00" departLane="random">
        <route edges="L0208 L0814 L1420"/>
    </vehicle>
    <vehicle id="F075_5" depart="50.00" departLane="random">
        <route edges="L2115 L1509 L0903"/>
    </vehicle>
    <vehicle id="F07_5" depart="50.00" departLane="random">
        <route edges="L0309 L0915 L1521"/>
    </vehicle>
    <vehicle id="F08_5" depart="50.00" departLane="random">
        <route edges="L2216 L1610 L1004"/>
    </vehicle>
    <vehicle id="F09_5" depart="50.00" departLane="random">
        <route edges="L0511 L1117 L1723"/>
    </vehicle>
    <vehicle id="F10_5" depart="50.00" departLane="random">
        <route edges="L0612 L1218 L1824"/>
    </vehicle>
    <vehicle id="F11_5" depart="50.00" departLane="random">
        <route edges="L2418 L1812 L1206"/>
    </vehicle>
    <vehicle id="F04_41" depart="51.00" departLane="random">
        <route edges="L1314 L1415 L1516 L1617 L1718"/>
    </vehicle>
    <vehicle id="F01_8" depart="53.00" departLane="random">
        <route edges="L0107 L0713 L1319"/>
    </vehicle>
    <vehicle id="F04_42" depart="53.00" departLane="random">
        <route edges="L1314 L1415 L1516 L1617 L1718"/>
    </vehicle>
    <vehicle id="F13_8" depart="53.00" departLane="random">
        <route edges="L0612 L1211 L1110 L1009 L0908 L0807 L0713 L1319"/>
    </vehicle>
    <vehicle id="F04_43" depart="54.00" departLane="random">
        <route edges="L1314 L1415 L1516 L1617 L1718"/>
    </vehicle>
    <vehicle id="F04_44" depart="55.00" departLane="random">
        <route edges="L1314 L1415 L1516 L1617 L1718"/>
    </vehicle>
    <vehicle id="F04_45" depart="56.00" departLane="random">
        <route edges="L1314 L1415 L1516 L1617 L1718"/>
    </vehicle>
    <vehicle id="F04_46" depart="58.00" departLane="random">
        <route edges="L1314 L1415 L1516 L1617 L1718"/>
    </vehicle>
    <vehicle id="F04_47" depart="59.00" departLane="random">
        <route edges="L1314 L1415 L1516 L1617 L1718"/>
    </vehicle>
    <vehicle id="F00_6" depart="60.00" departLane="random">
        <route edges="L1913 L1307 L0701"/>
    </vehicle>
    <vehicle id="F01_9" depart="60.00" departLane="random">
        <route edges="L0107 L0713 L1319"/>
    </vehicle>
    <vehicle id="F02_6" depart="60.00" departLane="random">
        <route edges="L0102 L0203 L0304 L0405 L0506"/>
    </vehicle>
    <vehicle id="F03_6" depart="60.00" departLane="random">
        <route edges="L1211 L1110 L1009 L0908 L0807"/>
    </vehicle>
    <vehicle id="F04_48" depart="60.00" departLane="random">
        <route edges="L1314 L1415 L1516 L1617 L1718"/>
    </vehicle>
    <vehicle id="F05_6" depart="60.00" departLane="random">
        <route edges="L2423 L2322 L2221 L2120 L2019"/>
    </vehicle>
    <vehicle id="F06_6" depart="60.00" departLane="random">
        <route edges="L0208 L0814 L1420"/>
    </vehicle>
    <vehicle id="F075_6" depart="60.00" departLane="random">
        <route edges="L2115 L1509 L0903"/>
    </vehicle>
    <vehicle id="F07_6" depart="60.00" departLane="random">
        <route edges="L0309 L0915 L1521"/>
    </vehicle>
    <vehicle id="F08_6" depart="60.00" departLane="random">
        <route edges="L2216 L1610 L1004"/>
    </vehicle>
    <vehicle id="F09_6" depart="60.00" departLane="random">
        <route edges="L0511 L1117 L1723"/>
    </vehicle>
    <vehicle id="F10_6" depart="60.00" departLane="random">
        <route edges="L0612 L1218 L1824"/>
    </vehicle>
    <vehicle id="F11_6" depart="60.00" departLane="random">
        <route edges="L2418 L1812 L1206"/>
    </vehicle>
    <vehicle id="F13_9" depart="60.00" departLane="random">
        <route edges="L0612 L1211 L1110 L1009 L0908 L0807 L0713 L1319"/>
    </vehicle>
    <vehicle id="F04_49" depart="61.00" departLane="random">
        <route edges="L1314 L1415 L1516 L1617 L1718"/>
    </vehicle>
    <vehicle id="F04_50" depart="63.00" departLane="random">
        <route edges="L1314 L1415 L1516 L1617 L1718"/>
    </vehicle>
    <vehicle id="F04_51" depart="64.00" departLane="random">
        <route edges="L1314 L1415 L1516 L1617 L1718"/>
    </vehicle>
    <vehicle id="F04_52" depart="65.00" departLane="random">
        <route edges="L1314 L1415 L1516 L1617 L1718"/>
    </vehicle>
    <vehicle id="F04_53" depart="66.00" departLane="random">
        <route edges="L1314 L1415 L1516 L1617 L1718"/>
    </vehicle>
    <vehicle id="F01_10" depart="67.00" departLane="random">
        <route edges="L0107 L0713 L1319"/>
    </vehicle>
    <vehicle id="F13_10" depart="67.00" departLane="random">
        <route edges="L0612 L1211 L1110 L1009 L0908 L0807 L0713 L1319"/>
    </vehicle>
    <vehicle id="F04_54" depart="68.00" departLane="random">
        <route edges="L1314 L1415 L1516 L1617 L1718"/>
    </vehicle>
    <vehicle id="F04_55" depart="69.00" departLane="random">
        <route edges="L1314 L1415 L1516 L1617 L1718"/>
    </vehicle>
    <vehicle id="F00_7" depart="70.00" departLane="random">
        <route edges="L1913 L1307 L0701"/>
    </vehicle>
    <vehicle id="F02_7" depart="70.00" departLane="random">
        <route edges="L0102 L0203 L0304 L0405 L0506"/>
    </vehicle>
    <vehicle id="F03_7" depart="70.00" departLane="random">
        <route edges="L1211 L1110 L1009 L0908 L0807"/>
    </vehicle>
    <vehicle id="F04_56" depart="70.00" departLane="random">
        <route edges="L1314 L1415 L1516 L1617 L1718"/>
    </vehicle>
    <vehicle id="F05_7" depart="70.00" departLane="random">
        <route edges="L2423 L2322 L2221 L2120 L2019"/>
    </vehicle>
    <vehicle id="F06_7" depart="70.00" departLane="random">
        <route edges="L0208 L0814 L1420"/>
    </vehicle>
    <vehicle id="F075_7" depart="70.00" departLane="random">
        <route edges="L2115 L1509 L0903"/>
    </vehicle>
    <vehicle id="F07_7" depart="70.00" departLane="random">
        <route edges="L0309 L0915 L1521"/>
    </vehicle>
    <vehicle id="F08_7" depart="70.00" departLane="random">
        <route edges="L2216 L1610 L1004"/>
    </vehicle>
    <vehicle id="F09_7" depart="70.00" departLane="random">
        <route edges="L0511 L1117 L1723"/>
    </vehicle>
    <vehicle id="F10_7" depart="70.00" departLane="random">
        <route edges="L0612 L1218 L1824"/>
    </vehicle>
    <vehicle id="F11_7" depart="70.00" departLane="random">
        <route edges="L2418 L1812 L1206"/>
    </vehicle>
    <vehicle id="F04_57" depart="71.00" departLane="random">
        <route edges="L1314 L1415 L1516 L1617 L1718"/>
    </vehicle>
    <vehicle id="F01_11" depart="73.00" departLane="random">
        <route edges="L0107 L0713 L1319"/>
    </vehicle>
    <vehicle id="F04_58" depart="73.00" departLane="random">
        <route edges="L1314 L1415 L1516 L1617 L1718"/>
    </vehicle>
    <vehicle id="F13_11" depart="73.00" departLane="random">
        <route edges="L0612 L1211 L1110 L1009 L0908 L0807 L0713 L1319"/>
    </vehicle>
    <vehicle id="F04_59" depart="74.00" departLane="random">
        <route edges="L1314 L1415 L1516 L1617 L1718"/>
    </vehicle>
    <vehicle id="F04_60" depart="75.00" departLane="random">
        <route edges="L1314 L1415 L1516 L1617 L1718"/>
    </vehicle>
    <vehicle id="F04_61" depart="76.00" departLane="random">
        <route edges="L1314 L1415 L1516 L1617 L1718"/>
    </vehicle>
    <vehicle id="F04_62" depart="78.00" departLane="random">
        <route edges="L1314 L1415 L1516 L1617 L1718"/>
    </vehicle>
    <vehicle id="F04_63" depart="79.00" departLane="random">
        <route edges="L1314 L1415 L1516 L1617 L1718"/>
    </vehicle>
    <vehicle id="F00_8" depart="80.00" departLane="random">
        <route edges="L1913 L1307 L0701"/>
    </vehicle>
    <vehicle id="F01_12" depart="80.00" departLane="random">
        <route edges="L0107 L0713 L1319"/>
    </vehicle>
    <vehicle id="F02_8" depart="80.00" departLane="random">
        <route edges="L0102 L0203 L0304 L0405 L0506"/>
    </vehicle>
    <vehicle id="F03_8" depart="80.00" departLane="random">
        <route edges="L1211 L1110 L1009 L0908 L0807"/>
    </vehicle>
    <vehicle id="F04_64" depart="80.00" departLane="random">
        <route edges="L1314 L1415 L1516 L1617 L1718"/>
    </vehicle>
    <vehicle id="F05_8" depart="80.00" departLane="random">
        <route edges="L2423 L2322 L2221 L2120 L2019"/>
    </vehicle>
    <vehicle id="F06_8" depart="80.00" departLane="random">
        <route edges="L0208 L0814 L1420"/>
    </vehicle>
    <vehicle id="F075_8" depart="80.00" departLane="random">
        <route edges="L2115 L1509 L0903"/>
    </vehicle>
    <vehicle id="F07_8" depart="80.00" departLane="random">
        <route edges="L0309 L0915 L1521"/>
    </vehicle>
    <vehicle id="F08_8" depart="80.00" departLane="random">
        <route edges="L2216 L1610 L1004"/>
    </vehicle>
    <vehicle id="F09_8" depart="80.00" departLane="random">
        <route edges="L0511 L1117 L1723"/>
    </vehicle>
    <vehicle id="F10_8" depart="80.00" departLane="random">
        <route edges="L0612 L1218 L1824"/>
    </vehicle>
    <vehicle id="F11_8" depart="80.00" departLane="random">
        <route edges="L2418 L1812 L1206"/>
    </vehicle>
    <vehicle id="F13_12" depart="80.00" departLane="random">
        <route edges="L0612 L1211 L1110 L1009 L0908 L0807 L0713 L1319"/>
    </vehicle>
    <vehicle id="F04_65" depart="81.00" departLane="random">
        <route edges="L1314 L1415 L1516 L1617 L1718"/>
    </vehicle>
    <vehicle id="F04_66" depart="83.00" departLane="random">
        <route edges="L1314 L1415 L1516 L1617 L1718"/>
    </vehicle>
    <vehicle id="F04_67" depart="84.00" departLane="random">
        <route edges="L1314 L1415 L1516 L1617 L1718"/>
    </vehicle>
    <vehicle id="F04_68" depart="85.00" departLane="random">
        <route edges="L1314 L1415 L1516 L1617 L1718"/>
    </vehicle>
    <vehicle id="F04_69" depart="86.00" departLane="random">
        <route edges="L1314 L1415 L1516 L1617 L1718"/>
    </vehicle>
    <vehicle id="F01_13" depart="87.00" departLane="random">
        <route edges="L0107 L0713 L1319"/>
    </vehicle>
    <vehicle id="F13_13" depart="87.00" departLane="random">
        <route edges="L0612 L1211 L1110 L1009 L0908 L0807 L0713 L1319"/>
    </vehicle>
    <vehicle id="F04_70" depart="88.00" departLane="random">
        <route edges="L1314 L1415 L1516 L1617 L1718"/>
    </vehicle>
    <vehicle id="F04_71" depart="89.00" departLane="random">
        <route edges="L1314 L1415 L1516 L1617 L1718"/>
    </vehicle>
    <vehicle id="F00_9" depart="90.00" departLane="random">
        <route edges="L1913 L1307 L0701"/>
    </vehicle>
    <vehicle id="F02_9" depart="90.00" departLane="random">
        <route edges="L0102 L0203 L0304 L0405 L0506"/>
    </vehicle>
    <vehicle id="F03_9" depart="90.00" departLane="random">
        <route edges="L1211 L1110 L1009 L0908 L0807"/>
    </vehicle>
    <vehicle id="F04_72" depart="90.00" departLane="random">
        <route edges="L1314 L1415 L1516 L1617 L1718"/>
    </vehicle>
    <vehicle id="F05_9" depart="90.00" departLane="random">
        <route edges="L2423 L2322 L2221 L2120 L2019"/>
    </vehicle>
    <vehicle id="F06_9" depart="90.00" departLane="random">
        <route edges="L0208 L0814 L1420"/>
    </vehicle>
    <vehicle id="F075_9" depart="90.00" departLane="random">
        <route edges="L2115 L1509 L0903"/>
    </vehicle>
    <vehicle id="F07_9" depart="90.00" departLane="random">
        <route edges="L0309 L0915 L1521"/>
    </vehicle>
    <vehicle id="F08_9" depart="90.00" departLane="random">
        <route edges="L2216 L1610 L1004"/>
    </vehicle>
    <vehicle id="F09_9" depart="90.00" departLane="random">
        <route edges="L0511 L1117 L1723"/>
    </vehicle>
    <vehicle id="F10_9" depart="90.00" departLane="random">
        <route edges="L0612 L1218 L1824"/>
    </vehicle>
    <vehicle id="F11_9" depart="90.00" departLane="random">
        <route edges="L2418 L1812 L1206"/>
    </vehicle>
    <vehicle id="F04_73" depart="91.00" departLane="random">
        <route edges="L1314 L1415 L1516 L1617 L1718"/>
    </vehicle>
    <vehicle id="F01_14" depart="93.00" departLane="random">
        <route edges="L0107 L0713 L1319"/>
    </vehicle>
    <vehicle id="F04_74" depart="93.00" departLane="random">
        <route edges="L1314 L1415 L1516 L1617 L1718"/>
    </vehicle>
    <vehicle id="F13_14" depart="93.00" departLane="random">
        <route edges="L0612 L1211 L1110 L1009 L0908 L0807 L0713 L1319"/>
    </vehicle>
    <vehicle id="F04_75" depart="94.00" departLane="random">
        <route edges="L1314 L1415 L1516 L1617 L1718"/>
    </vehicle>
    <vehicle id="F04_76" depart="95.00" departLane="random">
        <route edges="L1314 L1415 L1516 L1617 L1718"/>
    </vehicle>
    <vehicle id="F04_77" depart="96.00" departLane="random">
        <route edges="L1314 L1415 L1516 L1617 L1718"/>
    </vehicle>
    <vehicle id="F04_78" depart="98.00" departLane="random">
        <route edges="L1314 L1415 L1516 L1617 L1718"/>
    </vehicle>
    <vehicle id="F04_79" depart="99.00" departLane="random">
        <route edges="L1314 L1415 L1516 L1617 L1718"/>
    </vehicle>
</routes>
