<?xml version="1.0" encoding="UTF-8"?>

<!-- generated on Wed Apr 17 14:12:49 2013 by SUMO netconvert Version 0.16.0
<?xml version="1.0" encoding="UTF-8"?>

<configuration xmlns:xsi="http://www.w3.org/2001/XMLSchema-instance" xsi:noNamespaceSchemaLocation="http://sumo.sf.net/xsd/netconvertConfiguration.xsd">

    <input>
        <node-files value="grid6_4.nod.xml"/>
        <edge-files value="grid6_4.edg.xml"/>
        <type-files value="grid6_4.typ.xml"/>
    </input>

    <output>
        <output-file value="grid6_4.net.xml"/>
    </output>

    <processing>
        <no-turnarounds value="true"/>
    </processing>

</configuration>
-->

<net version="0.13" xmlns:xsi="http://www.w3.org/2001/XMLSchema-instance" xsi:noNamespaceSchemaLocation="http://sumo.sf.net/xsd/net_file.xsd">

    <location netOffset="0.00,0.00" convBoundary="0.00,0.00,750.00,450.00" origBoundary="0.00,0.00,750.00,450.00" projParameter="!"/>

    <edge id=":1_0" function="internal">
        <lane id=":1_0_0" index="0" speed="17.89" length="5.00" shape="8.25,441.95 8.44,443.31 9.03,444.28 9.99,444.86 11.35,445.05"/>
    </edge>
    <edge id=":1_1" function="internal">
        <lane id=":1_1_0" index="0" speed="17.89" length="10.32" shape="4.95,441.95 5.35,444.75 6.55,446.75 8.55,447.95 11.35,448.35"/>
    </edge>
    <edge id=":10_0" function="internal">
        <lane id=":10_0_0" index="0" speed="13.41" length="5.00" shape="454.75,304.95 453.39,305.14 452.42,305.72 451.84,306.69 451.65,308.05"/>
    </edge>
    <edge id=":10_1" function="internal">
        <lane id=":10_1_0" index="0" speed="15.65" length="6.20" shape="454.75,304.95 448.55,304.95"/>
    </edge>
    <edge id=":10_2" function="internal">
        <lane id=":10_2_0" index="0" speed="15.65" length="6.20" shape="454.75,301.65 448.55,301.65"/>
    </edge>
    <edge id=":10_3" function="internal">
        <lane id=":10_3_0" index="0" speed="11.18" length="9.50" shape="451.65,298.55 451.65,308.05"/>
    </edge>
    <edge id=":10_4" function="internal">
        <lane id=":10_4_0" index="0" speed="13.41" length="5.00" shape="451.65,298.55 451.46,299.91 450.87,300.88 449.91,301.46 448.55,301.65"/>
    </edge>
    <edge id=":11_0" function="internal">
        <lane id=":11_0_0" index="0" speed="13.41" length="5.00" shape="598.35,308.05 598.16,306.69 597.58,305.73 596.61,305.14 595.25,304.95"/>
    </edge>
    <edge id=":11_1" function="internal">
        <lane id=":11_1_0" index="0" speed="11.18" length="9.50" shape="598.35,308.05 598.35,298.55"/>
    </edge>
    <edge id=":11_2" function="internal">
        <lane id=":11_2_0" index="0" speed="15.65" length="6.20" shape="601.45,304.95 595.25,304.95"/>
    </edge>
    <edge id=":11_3" function="internal">
        <lane id=":11_3_0" index="0" speed="15.65" length="6.20" shape="601.45,301.65 595.25,301.65"/>
    </edge>
    <edge id=":11_4" function="internal">
        <lane id=":11_4_0" index="0" speed="13.41" length="5.00" shape="601.45,301.65 600.09,301.46 599.12,300.88 598.54,299.91 598.35,298.55"/>
    </edge>
    <edge id=":12_0" function="internal">
        <lane id=":12_0_0" index="0" speed="17.89" length="5.00" shape="741.75,308.05 741.56,306.69 740.98,305.73 740.01,305.14 738.65,304.95"/>
    </edge>
    <edge id=":12_1" function="internal">
        <lane id=":12_1_0" index="0" speed="20.12" length="9.50" shape="741.75,308.05 741.75,298.55"/>
    </edge>
    <edge id=":12_2" function="internal">
        <lane id=":12_2_0" index="0" speed="20.12" length="9.50" shape="745.05,308.05 745.05,298.55"/>
    </edge>
    <edge id=":12_3" function="internal">
        <lane id=":12_3_0" index="0" speed="20.12" length="9.50" shape="748.35,308.05 748.35,298.55"/>
    </edge>
    <edge id=":12_4" function="internal">
        <lane id=":12_4_0" index="0" speed="20.12" length="9.50" shape="758.25,298.55 758.25,308.05"/>
    </edge>
    <edge id=":12_5" function="internal">
        <lane id=":12_5_0" index="0" speed="20.12" length="9.50" shape="754.95,298.55 754.95,308.05"/>
    </edge>
    <edge id=":12_6" function="internal">
        <lane id=":12_6_0" index="0" speed="20.12" length="9.50" shape="751.65,298.55 751.65,308.05"/>
    </edge>
    <edge id=":12_7" function="internal">
        <lane id=":12_7_0" index="0" speed="17.89" length="10.90" shape="751.65,298.55 750.84,299.91 748.40,300.88 744.34,301.46 741.75,301.54"/>
    </edge>
    <edge id=":12_8" function="internal">
        <lane id=":12_8_0" index="0" speed="17.89" length="3.10" shape="741.75,301.54 738.65,301.65"/>
    </edge>
    <edge id=":13_0" function="internal">
        <lane id=":13_0_0" index="0" speed="20.12" length="9.50" shape="-8.25,151.45 -8.25,141.95"/>
    </edge>
    <edge id=":13_1" function="internal">
        <lane id=":13_1_0" index="0" speed="20.12" length="9.50" shape="-4.95,151.45 -4.95,141.95"/>
    </edge>
    <edge id=":13_2" function="internal">
        <lane id=":13_2_0" index="0" speed="20.12" length="9.50" shape="-1.65,151.45 -1.65,141.95"/>
    </edge>
    <edge id=":13_3" function="internal">
        <lane id=":13_3_0" index="0" speed="17.89" length="10.90" shape="-1.65,151.45 -0.84,150.09 1.60,149.12 5.66,148.54 8.25,148.46"/>
    </edge>
    <edge id=":13_8" function="internal">
        <lane id=":13_8_0" index="0" speed="17.89" length="3.10" shape="8.25,148.46 11.35,148.35"/>
    </edge>
    <edge id=":13_4" function="internal">
        <lane id=":13_4_0" index="0" speed="17.89" length="5.00" shape="8.25,141.95 8.44,143.31 9.03,144.27 9.99,144.86 11.35,145.05"/>
    </edge>
    <edge id=":13_5" function="internal">
        <lane id=":13_5_0" index="0" speed="20.12" length="9.50" shape="8.25,141.95 8.25,151.45"/>
    </edge>
    <edge id=":13_6" function="internal">
        <lane id=":13_6_0" index="0" speed="20.12" length="9.50" shape="4.95,141.95 4.95,151.45"/>
    </edge>
    <edge id=":13_7" function="internal">
        <lane id=":13_7_0" index="0" speed="20.12" length="9.50" shape="1.65,141.95 1.65,151.45"/>
    </edge>
    <edge id=":14_0" function="internal">
        <lane id=":14_0_0" index="0" speed="11.18" length="9.50" shape="148.35,151.45 148.35,141.95"/>
    </edge>
    <edge id=":14_1" function="internal">
        <lane id=":14_1_0" index="0" speed="13.41" length="5.00" shape="148.35,151.45 148.54,150.09 149.12,149.12 150.09,148.54 151.45,148.35"/>
    </edge>
    <edge id=":14_2" function="internal">
        <lane id=":14_2_0" index="0" speed="13.41" length="5.00" shape="145.25,145.05 146.61,144.86 147.57,144.28 148.16,143.31 148.35,141.95"/>
    </edge>
    <edge id=":14_3" function="internal">
        <lane id=":14_3_0" index="0" speed="15.65" length="6.20" shape="145.25,145.05 151.45,145.05"/>
    </edge>
    <edge id=":14_4" function="internal">
        <lane id=":14_4_0" index="0" speed="15.65" length="6.20" shape="145.25,148.35 151.45,148.35"/>
    </edge>
    <edge id=":15_0" function="internal">
        <lane id=":15_0_0" index="0" speed="11.18" length="9.50" shape="298.35,151.45 298.35,141.95"/>
    </edge>
    <edge id=":15_1" function="internal">
        <lane id=":15_1_0" index="0" speed="13.41" length="7.85" shape="298.35,151.45 298.75,150.09 299.95,149.12 301.95,148.54 304.75,148.35"/>
    </edge>
    <edge id=":15_2" function="internal">
        <lane id=":15_2_0" index="0" speed="13.41" length="5.00" shape="301.65,141.95 301.84,143.31 302.42,144.27 303.39,144.86 304.75,145.05"/>
    </edge>
    <edge id=":15_3" function="internal">
        <lane id=":15_3_0" index="0" speed="11.18" length="9.50" shape="301.65,141.95 301.65,151.45"/>
    </edge>
    <edge id=":15_4" function="internal">
        <lane id=":15_4_0" index="0" speed="13.41" length="5.00" shape="295.25,145.05 296.61,144.86 297.58,144.28 298.16,143.31 298.35,141.95"/>
    </edge>
    <edge id=":15_5" function="internal">
        <lane id=":15_5_0" index="0" speed="15.65" length="9.50" shape="295.25,145.05 304.75,145.05"/>
    </edge>
    <edge id=":15_6" function="internal">
        <lane id=":15_6_0" index="0" speed="15.65" length="9.50" shape="295.25,148.35 304.75,148.35"/>
    </edge>
    <edge id=":15_7" function="internal">
        <lane id=":15_7_0" index="0" speed="13.41" length="7.85" shape="295.25,148.35 298.05,148.54 300.05,149.12 301.25,150.09 301.65,151.45"/>
    </edge>
    <edge id=":16_0" function="internal">
        <lane id=":16_0_0" index="0" speed="13.41" length="5.00" shape="451.65,141.95 451.84,143.31 452.42,144.27 453.39,144.86 454.75,145.05"/>
    </edge>
    <edge id=":16_1" function="internal">
        <lane id=":16_1_0" index="0" speed="11.18" length="9.50" shape="451.65,141.95 451.65,151.45"/>
    </edge>
    <edge id=":16_2" function="internal">
        <lane id=":16_2_0" index="0" speed="15.65" length="6.20" shape="448.55,145.05 454.75,145.05"/>
    </edge>
    <edge id=":16_3" function="internal">
        <lane id=":16_3_0" index="0" speed="15.65" length="6.20" shape="448.55,148.35 454.75,148.35"/>
    </edge>
    <edge id=":16_4" function="internal">
        <lane id=":16_4_0" index="0" speed="13.41" length="5.00" shape="448.55,148.35 449.91,148.54 450.88,149.12 451.46,150.09 451.65,151.45"/>
    </edge>
    <edge id=":17_0" function="internal">
        <lane id=":17_0_0" index="0" speed="11.18" length="9.50" shape="598.35,151.45 598.35,141.95"/>
    </edge>
    <edge id=":17_1" function="internal">
        <lane id=":17_1_0" index="0" speed="13.41" length="5.00" shape="598.35,151.45 598.54,150.09 599.12,149.12 600.09,148.54 601.45,148.35"/>
    </edge>
    <edge id=":17_2" function="internal">
        <lane id=":17_2_0" index="0" speed="13.41" length="5.00" shape="595.25,145.05 596.61,144.86 597.58,144.28 598.16,143.31 598.35,141.95"/>
    </edge>
    <edge id=":17_3" function="internal">
        <lane id=":17_3_0" index="0" speed="15.65" length="6.20" shape="595.25,145.05 601.45,145.05"/>
    </edge>
    <edge id=":17_4" function="internal">
        <lane id=":17_4_0" index="0" speed="15.65" length="6.20" shape="595.25,148.35 601.45,148.35"/>
    </edge>
    <edge id=":18_0" function="internal">
        <lane id=":18_0_0" index="0" speed="20.12" length="9.50" shape="741.75,151.45 741.75,141.95"/>
    </edge>
    <edge id=":18_1" function="internal">
        <lane id=":18_1_0" index="0" speed="20.12" length="9.50" shape="745.05,151.45 745.05,141.95"/>
    </edge>
    <edge id=":18_2" function="internal">
        <lane id=":18_2_0" index="0" speed="20.12" length="9.50" shape="748.35,151.45 748.35,141.95"/>
    </edge>
    <edge id=":18_3" function="internal">
        <lane id=":18_3_0" index="0" speed="20.12" length="9.50" shape="758.25,141.95 758.25,151.45"/>
    </edge>
    <edge id=":18_4" function="internal">
        <lane id=":18_4_0" index="0" speed="20.12" length="9.50" shape="754.95,141.95 754.95,151.45"/>
    </edge>
    <edge id=":18_5" function="internal">
        <lane id=":18_5_0" index="0" speed="20.12" length="9.50" shape="751.65,141.95 751.65,151.45"/>
    </edge>
    <edge id=":18_6" function="internal">
        <lane id=":18_6_0" index="0" speed="17.89" length="5.00" shape="738.65,145.05 740.01,144.86 740.98,144.28 741.56,143.31 741.75,141.95"/>
    </edge>
    <edge id=":18_7" function="internal">
        <lane id=":18_7_0" index="0" speed="17.89" length="17.16" shape="738.65,148.35 745.78,148.54 750.88,149.12 753.93,150.09 754.95,151.45"/>
    </edge>
    <edge id=":18_8" function="internal">
        <lane id=":18_8_0" index="0" speed="17.89" length="14.00" shape="738.65,148.35 744.34,148.54 748.40,149.12 750.84,150.09 751.65,151.45"/>
    </edge>
    <edge id=":19_0" function="internal">
        <lane id=":19_0_0" index="0" speed="17.89" length="5.00" shape="11.35,4.95 9.99,5.14 9.03,5.73 8.44,6.69 8.25,8.05"/>
    </edge>
    <edge id=":19_1" function="internal">
        <lane id=":19_1_0" index="0" speed="17.89" length="10.32" shape="11.35,1.65 8.55,2.05 6.55,3.25 5.35,5.25 4.95,8.05"/>
    </edge>
    <edge id=":19_2" function="internal">
        <lane id=":19_2_0" index="0" speed="17.89" length="13.09" shape="11.35,1.65 7.11,2.05 4.08,3.25 2.26,5.25 1.65,8.05"/>
    </edge>
    <edge id=":2_0" function="internal">
        <lane id=":2_0_0" index="0" speed="13.41" length="5.00" shape="145.25,445.05 146.61,444.86 147.58,444.28 148.16,443.31 148.35,441.95"/>
    </edge>
    <edge id=":2_1" function="internal">
        <lane id=":2_1_0" index="0" speed="15.65" length="6.20" shape="145.25,445.05 151.45,445.05"/>
    </edge>
    <edge id=":2_2" function="internal">
        <lane id=":2_2_0" index="0" speed="15.65" length="6.20" shape="145.25,448.35 151.45,448.35"/>
    </edge>
    <edge id=":20_0" function="internal">
        <lane id=":20_0_0" index="0" speed="13.41" length="5.00" shape="148.35,8.05 148.16,6.69 147.57,5.73 146.61,5.14 145.25,4.95"/>
    </edge>
    <edge id=":20_1" function="internal">
        <lane id=":20_1_0" index="0" speed="15.65" length="6.20" shape="151.45,4.95 145.25,4.95"/>
    </edge>
    <edge id=":20_2" function="internal">
        <lane id=":20_2_0" index="0" speed="15.65" length="6.20" shape="151.45,1.65 145.25,1.65"/>
    </edge>
    <edge id=":21_0" function="internal">
        <lane id=":21_0_0" index="0" speed="13.41" length="5.00" shape="298.35,8.05 298.16,6.69 297.58,5.73 296.61,5.14 295.25,4.95"/>
    </edge>
    <edge id=":21_1" function="internal">
        <lane id=":21_1_0" index="0" speed="13.41" length="5.00" shape="304.75,4.95 303.39,5.14 302.42,5.73 301.84,6.69 301.65,8.05"/>
    </edge>
    <edge id=":21_2" function="internal">
        <lane id=":21_2_0" index="0" speed="15.65" length="9.50" shape="304.75,4.95 295.25,4.95"/>
    </edge>
    <edge id=":21_3" function="internal">
        <lane id=":21_3_0" index="0" speed="15.65" length="9.50" shape="304.75,1.65 295.25,1.65"/>
    </edge>
    <edge id=":22_0" function="internal">
        <lane id=":22_0_0" index="0" speed="13.41" length="5.00" shape="454.75,4.95 453.39,5.14 452.42,5.73 451.84,6.69 451.65,8.05"/>
    </edge>
    <edge id=":22_1" function="internal">
        <lane id=":22_1_0" index="0" speed="15.65" length="6.20" shape="454.75,4.95 448.55,4.95"/>
    </edge>
    <edge id=":22_2" function="internal">
        <lane id=":22_2_0" index="0" speed="15.65" length="6.20" shape="454.75,1.65 448.55,1.65"/>
    </edge>
    <edge id=":23_0" function="internal">
        <lane id=":23_0_0" index="0" speed="13.41" length="5.00" shape="598.35,8.05 598.16,6.69 597.58,5.73 596.61,5.14 595.25,4.95"/>
    </edge>
    <edge id=":23_1" function="internal">
        <lane id=":23_1_0" index="0" speed="15.65" length="6.20" shape="601.45,4.95 595.25,4.95"/>
    </edge>
    <edge id=":23_2" function="internal">
        <lane id=":23_2_0" index="0" speed="15.65" length="6.20" shape="601.45,1.65 595.25,1.65"/>
    </edge>
    <edge id=":24_0" function="internal">
        <lane id=":24_0_0" index="0" speed="17.89" length="5.00" shape="741.75,8.05 741.56,6.69 740.98,5.72 740.01,5.14 738.65,4.95"/>
    </edge>
    <edge id=":24_1" function="internal">
        <lane id=":24_1_0" index="0" speed="17.89" length="10.32" shape="745.05,8.05 744.65,5.25 743.45,3.25 741.45,2.05 738.65,1.65"/>
    </edge>
    <edge id=":3_0" function="internal">
        <lane id=":3_0_0" index="0" speed="13.41" length="5.00" shape="301.65,441.95 301.84,443.31 302.42,444.27 303.39,444.86 304.75,445.05"/>
    </edge>
    <edge id=":3_1" function="internal">
        <lane id=":3_1_0" index="0" speed="13.41" length="5.00" shape="295.25,445.05 296.61,444.86 297.58,444.28 298.16,443.31 298.35,441.95"/>
    </edge>
    <edge id=":3_2" function="internal">
        <lane id=":3_2_0" index="0" speed="15.65" length="9.50" shape="295.25,445.05 304.75,445.05"/>
    </edge>
    <edge id=":3_3" function="internal">
        <lane id=":3_3_0" index="0" speed="15.65" length="9.50" shape="295.25,448.35 304.75,448.35"/>
    </edge>
    <edge id=":4_0" function="internal">
        <lane id=":4_0_0" index="0" speed="13.41" length="5.00" shape="451.65,441.95 451.84,443.31 452.42,444.27 453.39,444.86 454.75,445.05"/>
    </edge>
    <edge id=":4_1" function="internal">
        <lane id=":4_1_0" index="0" speed="15.65" length="6.20" shape="448.55,445.05 454.75,445.05"/>
    </edge>
    <edge id=":4_2" function="internal">
        <lane id=":4_2_0" index="0" speed="15.65" length="6.20" shape="448.55,448.35 454.75,448.35"/>
    </edge>
    <edge id=":5_0" function="internal">
        <lane id=":5_0_0" index="0" speed="13.41" length="5.00" shape="595.25,445.05 596.61,444.86 597.58,444.28 598.16,443.31 598.35,441.95"/>
    </edge>
    <edge id=":5_1" function="internal">
        <lane id=":5_1_0" index="0" speed="15.65" length="6.20" shape="595.25,445.05 601.45,445.05"/>
    </edge>
    <edge id=":5_2" function="internal">
        <lane id=":5_2_0" index="0" speed="15.65" length="6.20" shape="595.25,448.35 601.45,448.35"/>
    </edge>
    <edge id=":6_0" function="internal">
        <lane id=":6_0_0" index="0" speed="17.89" length="5.00" shape="738.65,445.05 740.01,444.86 740.98,444.28 741.56,443.31 741.75,441.95"/>
    </edge>
    <edge id=":6_1" function="internal">
        <lane id=":6_1_0" index="0" speed="17.89" length="10.32" shape="738.65,448.35 741.45,447.95 743.45,446.75 744.65,444.75 745.05,441.95"/>
    </edge>
    <edge id=":6_2" function="internal">
        <lane id=":6_2_0" index="0" speed="17.89" length="13.09" shape="738.65,448.35 742.89,447.95 745.92,446.75 747.74,444.75 748.35,441.95"/>
    </edge>
    <edge id=":7_0" function="internal">
        <lane id=":7_0_0" index="0" speed="20.12" length="9.50" shape="-8.25,308.05 -8.25,298.55"/>
    </edge>
    <edge id=":7_1" function="internal">
        <lane id=":7_1_0" index="0" speed="20.12" length="9.50" shape="-4.95,308.05 -4.95,298.55"/>
    </edge>
    <edge id=":7_2" function="internal">
        <lane id=":7_2_0" index="0" speed="20.12" length="9.50" shape="-1.65,308.05 -1.65,298.55"/>
    </edge>
    <edge id=":7_3" function="internal">
        <lane id=":7_3_0" index="0" speed="17.89" length="5.00" shape="11.35,304.95 9.99,305.14 9.03,305.72 8.44,306.69 8.25,308.05"/>
    </edge>
    <edge id=":7_4" function="internal">
        <lane id=":7_4_0" index="0" speed="17.89" length="17.16" shape="11.35,301.65 4.22,301.46 -0.87,300.88 -3.93,299.91 -4.95,298.55"/>
    </edge>
    <edge id=":7_5" function="internal">
        <lane id=":7_5_0" index="0" speed="17.89" length="14.00" shape="11.35,301.65 5.66,301.46 1.60,300.88 -0.84,299.91 -1.65,298.55"/>
    </edge>
    <edge id=":7_6" function="internal">
        <lane id=":7_6_0" index="0" speed="20.12" length="9.50" shape="8.25,298.55 8.25,308.05"/>
    </edge>
    <edge id=":7_7" function="internal">
        <lane id=":7_7_0" index="0" speed="20.12" length="9.50" shape="4.95,298.55 4.95,308.05"/>
    </edge>
    <edge id=":7_8" function="internal">
        <lane id=":7_8_0" index="0" speed="20.12" length="9.50" shape="1.65,298.55 1.65,308.05"/>
    </edge>
    <edge id=":8_0" function="internal">
        <lane id=":8_0_0" index="0" speed="13.41" length="5.00" shape="148.35,308.05 148.16,306.69 147.57,305.73 146.61,305.14 145.25,304.95"/>
    </edge>
    <edge id=":8_1" function="internal">
        <lane id=":8_1_0" index="0" speed="11.18" length="9.50" shape="148.35,308.05 148.35,298.55"/>
    </edge>
    <edge id=":8_2" function="internal">
        <lane id=":8_2_0" index="0" speed="15.65" length="6.20" shape="151.45,304.95 145.25,304.95"/>
    </edge>
    <edge id=":8_3" function="internal">
        <lane id=":8_3_0" index="0" speed="15.65" length="6.20" shape="151.45,301.65 145.25,301.65"/>
    </edge>
    <edge id=":8_4" function="internal">
        <lane id=":8_4_0" index="0" speed="13.41" length="5.00" shape="151.45,301.65 150.09,301.46 149.12,300.88 148.54,299.91 148.35,298.55"/>
    </edge>
    <edge id=":9_0" function="internal">
        <lane id=":9_0_0" index="0" speed="13.41" length="5.00" shape="298.35,308.05 298.16,306.69 297.58,305.73 296.61,305.14 295.25,304.95"/>
    </edge>
    <edge id=":9_1" function="internal">
        <lane id=":9_1_0" index="0" speed="11.18" length="9.50" shape="298.35,308.05 298.35,298.55"/>
    </edge>
    <edge id=":9_2" function="internal">
        <lane id=":9_2_0" index="0" speed="13.41" length="5.00" shape="304.75,304.95 303.39,305.14 302.42,305.72 301.84,306.69 301.65,308.05"/>
    </edge>
    <edge id=":9_3" function="internal">
        <lane id=":9_3_0" index="0" speed="15.65" length="9.50" shape="304.75,304.95 295.25,304.95"/>
    </edge>
    <edge id=":9_4" function="internal">
        <lane id=":9_4_0" index="0" speed="15.65" length="9.50" shape="304.75,301.65 295.25,301.65"/>
    </edge>
    <edge id=":9_5" function="internal">
        <lane id=":9_5_0" index="0" speed="13.41" length="7.85" shape="304.75,301.65 301.95,301.46 299.95,300.88 298.75,299.91 298.35,298.55"/>
    </edge>
    <edge id=":9_6" function="internal">
        <lane id=":9_6_0" index="0" speed="11.18" length="9.50" shape="301.65,298.55 301.65,308.05"/>
    </edge>
    <edge id=":9_7" function="internal">
        <lane id=":9_7_0" index="0" speed="13.41" length="7.85" shape="301.65,298.55 301.25,299.91 300.05,300.88 298.05,301.46 295.25,301.65"/>
    </edge>

    <edge id="L0102" from="1" to="2" priority="3" type="35mi">
        <lane id="L0102_0" index="0" speed="15.65" length="133.90" shape="11.35,445.05 145.25,445.05"/>
        <lane id="L0102_1" index="1" speed="15.65" length="133.90" shape="11.35,448.35 145.25,448.35"/>
    </edge>
    <edge id="L0107" from="1" to="7" priority="4" type="45mi">
        <lane id="L0107_0" index="0" speed="20.12" length="133.90" shape="-8.25,441.95 -8.25,308.05"/>
        <lane id="L0107_1" index="1" speed="20.12" length="133.90" shape="-4.95,441.95 -4.95,308.05"/>
        <lane id="L0107_2" index="2" speed="20.12" length="133.90" shape="-1.65,441.95 -1.65,308.05"/>
    </edge>
    <edge id="L0203" from="2" to="3" priority="3" type="35mi">
        <lane id="L0203_0" index="0" speed="15.65" length="143.80" shape="151.45,445.05 295.25,445.05"/>
        <lane id="L0203_1" index="1" speed="15.65" length="143.80" shape="151.45,448.35 295.25,448.35"/>
    </edge>
    <edge id="L0208" from="2" to="8" priority="2" type="25mi">
        <lane id="L0208_0" index="0" speed="11.18" length="133.90" shape="148.35,441.95 148.35,308.05"/>
    </edge>
    <edge id="L0304" from="3" to="4" priority="3" type="35mi">
        <lane id="L0304_0" index="0" speed="15.65" length="143.80" shape="304.75,445.05 448.55,445.05"/>
        <lane id="L0304_1" index="1" speed="15.65" length="143.80" shape="304.75,448.35 448.55,448.35"/>
    </edge>
    <edge id="L0309" from="3" to="9" priority="2" type="25mi">
        <lane id="L0309_0" index="0" speed="11.18" length="133.90" shape="298.35,441.95 298.35,308.05"/>
    </edge>
    <edge id="L0405" from="4" to="5" priority="3" type="35mi">
        <lane id="L0405_0" index="0" speed="15.65" length="140.50" shape="454.75,445.05 595.25,445.05"/>
        <lane id="L0405_1" index="1" speed="15.65" length="140.50" shape="454.75,448.35 595.25,448.35"/>
    </edge>
    <edge id="L0506" from="5" to="6" priority="3" type="35mi">
        <lane id="L0506_0" index="0" speed="15.65" length="137.20" shape="601.45,445.05 738.65,445.05"/>
        <lane id="L0506_1" index="1" speed="15.65" length="137.20" shape="601.45,448.35 738.65,448.35"/>
    </edge>
    <edge id="L0511" from="5" to="11" priority="2" type="25mi">
        <lane id="L0511_0" index="0" speed="11.18" length="133.90" shape="598.35,441.95 598.35,308.05"/>
    </edge>
    <edge id="L0612" from="6" to="12" priority="4" type="45mi">
        <lane id="L0612_0" index="0" speed="20.12" length="133.90" shape="741.75,441.95 741.75,308.05"/>
        <lane id="L0612_1" index="1" speed="20.12" length="133.90" shape="745.05,441.95 745.05,308.05"/>
        <lane id="L0612_2" index="2" speed="20.12" length="133.90" shape="748.35,441.95 748.35,308.05"/>
    </edge>
    <edge id="L0701" from="7" to="1" priority="4" type="45mi">
        <lane id="L0701_0" index="0" speed="20.12" length="133.90" shape="8.25,308.05 8.25,441.95"/>
        <lane id="L0701_1" index="1" speed="20.12" length="133.90" shape="4.95,308.05 4.95,441.95"/>
        <lane id="L0701_2" index="2" speed="20.12" length="133.90" shape="1.65,308.05 1.65,441.95"/>
    </edge>
    <edge id="L0713" from="7" to="13" priority="4" type="45mi">
        <lane id="L0713_0" index="0" speed="20.12" length="147.10" shape="-8.25,298.55 -8.25,151.45"/>
        <lane id="L0713_1" index="1" speed="20.12" length="147.10" shape="-4.95,298.55 -4.95,151.45"/>
        <lane id="L0713_2" index="2" speed="20.12" length="147.10" shape="-1.65,298.55 -1.65,151.45"/>
    </edge>
    <edge id="L0807" from="8" to="7" priority="3" type="35mi">
        <lane id="L0807_0" index="0" speed="15.65" length="133.90" shape="145.25,304.95 11.35,304.95"/>
        <lane id="L0807_1" index="1" speed="15.65" length="133.90" shape="145.25,301.65 11.35,301.65"/>
    </edge>
    <edge id="L0814" from="8" to="14" priority="2" type="25mi">
        <lane id="L0814_0" index="0" speed="11.18" length="147.10" shape="148.35,298.55 148.35,151.45"/>
    </edge>
    <edge id="L0903" from="9" to="3" priority="2" type="25mi">
        <lane id="L0903_0" index="0" speed="11.18" length="133.90" shape="301.65,308.05 301.65,441.95"/>
    </edge>
    <edge id="L0908" from="9" to="8" priority="3" type="35mi">
        <lane id="L0908_0" index="0" speed="15.65" length="143.80" shape="295.25,304.95 151.45,304.95"/>
        <lane id="L0908_1" index="1" speed="15.65" length="143.80" shape="295.25,301.65 151.45,301.65"/>
    </edge>
    <edge id="L0915" from="9" to="15" priority="2" type="25mi">
        <lane id="L0915_0" index="0" speed="11.18" length="147.10" shape="298.35,298.55 298.35,151.45"/>
    </edge>
    <edge id="L1004" from="10" to="4" priority="2" type="25mi">
        <lane id="L1004_0" index="0" speed="11.18" length="133.90" shape="451.65,308.05 451.65,441.95"/>
    </edge>
    <edge id="L1009" from="10" to="9" priority="3" type="35mi">
        <lane id="L1009_0" index="0" speed="15.65" length="143.80" shape="448.55,304.95 304.75,304.95"/>
        <lane id="L1009_1" index="1" speed="15.65" length="143.80" shape="448.55,301.65 304.75,301.65"/>
    </edge>
    <edge id="L1110" from="11" to="10" priority="3" type="35mi">
        <lane id="L1110_0" index="0" speed="15.65" length="140.50" shape="595.25,304.95 454.75,304.95"/>
        <lane id="L1110_1" index="1" speed="15.65" length="140.50" shape="595.25,301.65 454.75,301.65"/>
    </edge>
    <edge id="L1117" from="11" to="17" priority="2" type="25mi">
        <lane id="L1117_0" index="0" speed="11.18" length="147.10" shape="598.35,298.55 598.35,151.45"/>
    </edge>
    <edge id="L1206" from="12" to="6" priority="4" type="45mi">
        <lane id="L1206_0" index="0" speed="20.12" length="133.90" shape="758.25,308.05 758.25,441.95"/>
        <lane id="L1206_1" index="1" speed="20.12" length="133.90" shape="754.95,308.05 754.95,441.95"/>
        <lane id="L1206_2" index="2" speed="20.12" length="133.90" shape="751.65,308.05 751.65,441.95"/>
    </edge>
    <edge id="L1211" from="12" to="11" priority="3" type="35mi">
        <lane id="L1211_0" index="0" speed="15.65" length="137.20" shape="738.65,304.95 601.45,304.95"/>
        <lane id="L1211_1" index="1" speed="15.65" length="137.20" shape="738.65,301.65 601.45,301.65"/>
    </edge>
    <edge id="L1218" from="12" to="18" priority="4" type="45mi">
        <lane id="L1218_0" index="0" speed="20.12" length="147.10" shape="741.75,298.55 741.75,151.45"/>
        <lane id="L1218_1" index="1" speed="20.12" length="147.10" shape="745.05,298.55 745.05,151.45"/>
        <lane id="L1218_2" index="2" speed="20.12" length="147.10" shape="748.35,298.55 748.35,151.45"/>
    </edge>
    <edge id="L1307" from="13" to="7" priority="4" type="45mi">
        <lane id="L1307_0" index="0" speed="20.12" length="147.10" shape="8.25,151.45 8.25,298.55"/>
        <lane id="L1307_1" index="1" speed="20.12" length="147.10" shape="4.95,151.45 4.95,298.55"/>
        <lane id="L1307_2" index="2" speed="20.12" length="147.10" shape="1.65,151.45 1.65,298.55"/>
    </edge>
    <edge id="L1314" from="13" to="14" priority="3" type="35mi">
        <lane id="L1314_0" index="0" speed="15.65" length="133.90" shape="11.35,145.05 145.25,145.05"/>
        <lane id="L1314_1" index="1" speed="15.65" length="133.90" shape="11.35,148.35 145.25,148.35"/>
    </edge>
    <edge id="L1319" from="13" to="19" priority="4" type="45mi">
        <lane id="L1319_0" index="0" speed="20.12" length="133.90" shape="-8.25,141.95 -8.25,8.05"/>
        <lane id="L1319_1" index="1" speed="20.12" length="133.90" shape="-4.95,141.95 -4.95,8.05"/>
        <lane id="L1319_2" index="2" speed="20.12" length="133.90" shape="-1.65,141.95 -1.65,8.05"/>
    </edge>
    <edge id="L1415" from="14" to="15" priority="3" type="35mi">
        <lane id="L1415_0" index="0" speed="15.65" length="143.80" shape="151.45,145.05 295.25,145.05"/>
        <lane id="L1415_1" index="1" speed="15.65" length="143.80" shape="151.45,148.35 295.25,148.35"/>
    </edge>
    <edge id="L1420" from="14" to="20" priority="2" type="25mi">
        <lane id="L1420_0" index="0" speed="11.18" length="133.90" shape="148.35,141.95 148.35,8.05"/>
    </edge>
    <edge id="L1509" from="15" to="9" priority="2" type="25mi">
        <lane id="L1509_0" index="0" speed="11.18" length="147.10" shape="301.65,151.45 301.65,298.55"/>
    </edge>
    <edge id="L1516" from="15" to="16" priority="3" type="35mi">
        <lane id="L1516_0" index="0" speed="15.65" length="143.80" shape="304.75,145.05 448.55,145.05"/>
        <lane id="L1516_1" index="1" speed="15.65" length="143.80" shape="304.75,148.35 448.55,148.35"/>
    </edge>
    <edge id="L1521" from="15" to="21" priority="2" type="25mi">
        <lane id="L1521_0" index="0" speed="11.18" length="133.90" shape="298.35,141.95 298.35,8.05"/>