<?xml version="1.0" encoding="UTF-8"?>
<nodes xmlns:xsi="http://www.w3.org/2001/XMLSchema-instance"
 xsi:noNamespaceSchemaLocation="http://sumo.sf.net/xsd/nodes_file.xsd">
	<node id="1" x="0.0" y="450.0" />
	<node id="2" x="150.0" y="450.0" />
	<node id="3" x="300.0" y="450.0" />
	<node id="4" x="450.0" y="450.0" />
	<node id="5" x="600.0" y="450.0" />
	<node id="6" x="750.0" y="450.0" />
	<node id="7" x="0.0" y="300.0" />
	<node id="8" x="150.0" y="300.0" />
	<node id="9" x="300.0" y="300.0" />
	<node id="10" x="450.0" y="300.0" />
	<node id="11" x="600.0" y="300.0" />
	<node id="12" x="750.0" y="300.0" />
	<node id="13" x="0.0" y="150.0" />
	<node id="14" x="150.0" y="150.0" />
	<node id="15" x="300.0" y="150.0" />
	<node id="16" x="450.0" y="150.0" />
	<node id="17" x="600.0" y="150.0" />
	<node id="18" x="750.0" y="150.0" />
	<node id="19" x="0.0" y="0.0" />
	<node id="20" x="150.0" y="0.0" />
	<node id="21" x="300.0" y="0.0" />
	<node id="22" x="450.0" y="0.0" />
	<node id="23" x="600.0" y="0.0" />
	<node id="24" x="750.0" y="0.0" />
</nodes>

