<?xml version="1.0"?>

<!-- generated on Wed Apr 17 14:33:04 2013 by SUMO duarouter Version 0.16.0
<?xml version="1.0" encoding="UTF-8"?>

<configuration xmlns:xsi="http://www.w3.org/2001/XMLSchema-instance" xsi:noNamespaceSchemaLocation="http://sumo.sf.net/xsd/duarouterConfiguration.xsd">

    <input>
        <net-file value="../grid6_4.net.xml"/>
        <flow-files value="grid6_4.flo.xml"/>
    </input>

    <output>
        <output-file value="grid6_4.rou.xml"/>
        <vtype-output value=""/>
    </output>

    <time>
        <begin value="0"/>
        <end value="200"/>
    </time>

</configuration>
-->

<routes xmlns:xsi="http://www.w3.org/2001/XMLSchema-instance" xsi:noNamespaceSchemaLocation="http://sumo.sf.net/xsd/routes_file.xsd">
    <vehicle id="F00_0" depart="0.00" departLane="random">
        <route edges="L1913 L1307 L0701"/>
    </vehicle>
    <vehicle id="F01_0" depart="0.00" departLane="random">
        <route edges="L0107 L0713 L1319"/>
    </vehicle>
    <vehicle id="F02_0" depart="0.00" departLane="random">
        <route edges="L0102 L0203 L0304 L0405 L0506"/>
    </vehicle>
    <vehicle id="F03_0" depart="0.00" departLane="random">
        <route edges="L1211 L1110 L1009 L0908 L0807"/>
    </vehicle>
    <vehicle id="F04_0" depart="0.00" departLane="random">
        <route edges="L1314 L1415 L1516 L1617 L1718"/>
    </vehicle>
    <vehicle id="F05_0" depart="0.00" departLane="random">
        <route edges="L2423 L2322 L2221 L2120 L2019"/>
    </vehicle>
    <vehicle id="F06_0" depart="0.00" departLane="random">
        <route edges="L0208 L0814 L1420"/>
    </vehicle>
    <vehicle id="F075_0" depart="0.00" departLane="random">
        <route edges="L2115 L1509 L0903"/>
    </vehicle>
    <vehicle id="F07_0" depart="0.00" departLane="random">
        <route edges="L0309 L0915 L1521"/>
    </vehicle>
    <vehicle id="F08_0" depart="0.00" departLane="random">
        <route edges="L2216 L1610 L1004"/>
    </vehicle>
    <vehicle id="F09_0" depart="0.00" departLane="random">
        <route edges="L0511 L1117 L1723"/>
    </vehicle>
    <vehicle id="F10_0" depart="0.00" departLane="random">
        <route edges="L0612 L1218 L1824"/>
    </vehicle>
    <vehicle id="F11_0" depart="0.00" departLane="random">
        <route edges="L2418 L1812 L1206"/>
    </vehicle>
    <vehicle id="F13_0" depart="0.00" departLane="random">
        <route edges="L0612 L1211 L1110 L1009 L0908 L0807 L0713 L1319"/>
    </vehicle>
    <vehicle id="F00_1" depart="3.00" departLane="random">
        <route edges="L1913 L1307 L0701"/>
    </vehicle>
    <vehicle id="F01_1" depart="3.00" departLane="random">
        <route edges="L0107 L0713 L1319"/>
    </vehicle>
    <vehicle id="F04_1" depart="3.00" departLane="random">
        <route edges="L1314 L1415 L1516 L1617 L1718"/>
    </vehicle>
    <vehicle id="F13_1" depart="4.00" departLane="random">
        <route edges="L0612 L1211 L1110 L1009 L0908 L0807 L0713 L1319"/>
    </vehicle>
    <vehicle id="F01_2" depart="6.00" departLane="random">
        <route edges="L0107 L0713 L1319"/>
    </vehicle>
    <vehicle id="F00_2" depart="7.00" departLane="random">
        <route edges="L1913 L1307 L0701"/>
    </vehicle>
    <vehicle id="F04_2" depart="7.00" departLane="random">
        <route edges="L1314 L1415 L1516 L1617 L1718"/>
    </vehicle>
    <vehicle id="F13_2" depart="8.00" departLane="random">
        <route edges="L0612 L1211 L1110 L1009 L0908 L0807 L0713 L1319"/>
    </vehicle>
    <vehicle id="F01_3" depart="9.00" departLane="random">
        <route edges="L0107 L0713 L1319"/>
    </vehicle>
    <vehicle id="F00_3" depart="10.00" departLane="random">
        <route edges="L1913 L1307 L0701"/>
    </vehicle>
    <vehicle id="F02_1" depart="10.00" departLane="random">
        <route edges="L0102 L0203 L0304 L0405 L0506"/>
    </vehicle>
    <vehicle id="F03_1" depart="10.00" departLane="random">
        <route edges="L1211 L1110 L1009 L0908 L0807"/>
    </vehicle>
    <vehicle id="F04_3" depart="10.00" departLane="random">
        <route edges="L1314 L1415 L1516 L1617 L1718"/>
    </vehicle>
    <vehicle id="F05_1" depart="10.00" departLane="random">
        <route edges="L2423 L2322 L2221 L2120 L2019"/>
    </vehicle>
    <vehicle id="F06_1" depart="10.00" departLane="random">
        <route edges="L0208 L0814 L1420"/>
    </vehicle>
    <vehicle id="F075_1" depart="10.00" departLane="random">
        <route edges="L2115 L1509 L0903"/>
    </vehicle>
    <vehicle id="F07_1" depart="10.00" departLane="random">
        <route edges="L0309 L0915 L1521"/>
    </vehicle>
    <vehicle id="F08_1" depart="10.00" departLane="random">
        <route edges="L2216 L1610 L1004"/>
    </vehicle>
    <vehicle id="F09_1" depart="10.00" departLane="random">
        <route edges="L0511 L1117 L1723"/>
    </vehicle>
    <vehicle id="F10_1" depart="10.00" departLane="random">
        <route edges="L0612 L1218 L1824"/>
    </vehicle>
    <vehicle id="F11_1" depart="10.00" departLane="random">
        <route edges="L2418 L1812 L1206"/>
    </vehicle>
    <vehicle id="F01_4" depart="11.00" departLane="random">
        <route edges="L0107 L0713 L1319"/>
    </vehicle>
    <vehicle id="F13_3" depart="12.00" departLane="random">
        <route edges="L0612 L1211 L1110 L1009 L0908 L0807 L0713 L1319"/>
    </vehicle>
    <vehicle id="F00_4" depart="13.00" departLane="random">
        <route edges="L1913 L1307 L0701"/>
    </vehicle>
    <vehicle id="F04_4" depart="13.00" departLane="random">
        <route edges="L1314 L1415 L1516 L1617 L1718"/>
    </vehicle>
    <vehicle id="F01_5" depart="14.00" departLane="random">
        <route edges="L0107 L0713 L1319"/>
    </vehicle>
    <vehicle id="F13_4" depart="16.00" departLane="random">
        <route edges="L0612 L1211 L1110 L1009 L0908 L0807 L0713 L1319"/>
    </vehicle>
    <vehicle id="F00_5" depart="17.00" departLane="random">
        <route edges="L1913 L1307 L0701"/>
    </vehicle>
    <vehicle id="F01_6" depart="17.00" departLane="random">
        <route edges="L0107 L0713 L1319"/>
    </vehicle>
    <vehicle id="F04_5" depart="17.00" departLane="random">
        <route edges="L1314 L1415 L1516 L1617 L1718"/>
    </vehicle>
    <vehicle id="F00_6" depart="20.00" departLane="random">
        <route edges="L1913 L1307 L0701"/>
    </vehicle>
    <vehicle id="F01_7" depart="20.00" departLane="random">
        <route edges="L0107 L0713 L1319"/>
    </vehicle>
    <vehicle id="F02_2" depart="20.00" departLane="random">
        <route edges="L0102 L0203 L0304 L0405 L0506"/>
    </vehicle>
    <vehicle id="F03_2" depart="20.00" departLane="random">
        <route edges="L1211 L1110 L1009 L0908 L0807"/>
    </vehicle>
    <vehicle id="F04_6" depart="20.00" departLane="random">
        <route edges="L1314 L1415 L1516 L1617 L1718"/>
    </vehicle>
    <vehicle id="F05_2" depart="20.00" departLane="random">
        <route edges="L2423 L2322 L2221 L2120 L2019"/>
    </vehicle>
    <vehicle id="F06_2" depart="20.00" departLane="random">
        <route edges="L0208 L0814 L1420"/>
    </vehicle>
    <vehicle id="F075_2" depart="20.00" departLane="random">
        <route edges="L2115 L1509 L0903"/>
    </vehicle>
    <vehicle id="F07_2" depart="20.00" departLane="random">
        <route edges="L0309 L0915 L1521"/>
    </vehicle>
    <vehicle id="F08_2" depart="20.00" departLane="random">
        <route edges="L2216 L1610 L1004"/>
    </vehicle>
    <vehicle id="F09_2" depart="20.00" departLane="random">
        <route edges="L0511 L1117 L1723"/>
    </vehicle>
    <vehicle id="F10_2" depart="20.00" departLane="random">
        <route edges="L0612 L1218 L1824"/>
    </vehicle>
    <vehicle id="F11_2" depart="20.00" departLane="random">
        <route edges="L2418 L1812 L1206"/>
    </vehicle>
    <vehicle id="F13_5" depart="20.00" departLane="random">
        <route edges="L0612 L1211 L1110 L1009 L0908 L0807 L0713 L1319"/>
    </vehicle>
    <vehicle id="F00_7" depart="23.00" departLane="random">
        <route edges="L1913 L1307 L0701"/>
    </vehicle>
    <vehicle id="F01_8" depart="23.00" departLane="random">
        <route edges="L0107 L0713 L1319"/>
    </vehicle>
    <vehicle id="F04_7" depart="23.00" departLane="random">
        <route edges="L1314 L1415 L1516 L1617 L1718"/>
    </vehicle>
    <vehicle id="F13_6" depart="24.00" departLane="random">
        <route edges="L0612 L1211 L1110 L1009 L0908 L0807 L0713 L1319"/>
    </vehicle>
    <vehicle id="rAmb_0" depart="25.00" color="0.00,1.00,0.00">
        <route color="0.00,1.00,0.00" edges="L1913 L1314 L1415 L1516 L1617 L1718 L1812 L1206"/>
    </vehicle>
    <vehicle id="F01_9" depart="26.00" departLane="random">
        <route edges="L0107 L0713 L1319"/>
    </vehicle>
    <vehicle id="F00_8" depart="27.00" departLane="random">
        <route edges="L1913 L1307 L0701"/>
    </vehicle>
    <vehicle id="F04_8" depart="27.00" departLane="random">
        <route edges="L1314 L1415 L1516 L1617 L1718"/>
    </vehicle>
    <vehicle id="F13_7" depart="28.00" departLane="random">
        <route edges="L0612 L1211 L1110 L1009 L0908 L0807 L0713 L1319"/>
    </vehicle>
    <vehicle id="F01_10" depart="29.00" departLane="random">
        <route edges="L0107 L0713 L1319"/>
    </vehicle>
    <vehicle id="F00_9" depart="30.00" departLane="random">
        <route edges="L1913 L1307 L0701"/>
    </vehicle>
    <vehicle id="F02_3" depart="30.00" departLane="random">
        <route edges="L0102 L0203 L0304 L0405 L0506"/>
    </vehicle>
    <vehicle id="F03_3" depart="30.00" departLane="random">
        <route edges="L1211 L1110 L1009 L0908 L0807"/>
    </vehicle>
    <vehicle id="F04_9" depart="30.00" departLane="random">
        <route edges="L1314 L1415 L1516 L1617 L1718"/>
    </vehicle>
    <vehicle id="F05_3" depart="30.00" departLane="random">
        <route edges="L2423 L2322 L2221 L2120 L2019"/>
    </vehicle>
    <vehicle id="F06_3" depart="30.00" departLane="random">
        <route edges="L0208 L0814 L1420"/>
    </vehicle>
    <vehicle id="F075_3" depart="30.00" departLane="random">
        <route edges="L2115 L1509 L0903"/>
    </vehicle>
    <vehicle id="F07_3" depart="30.00" departLane="random">
        <route edges="L0309 L0915 L1521"/>
    </vehicle>
    <vehicle id="F08_3" depart="30.00" departLane="random">
        <route edges="L2216 L1610 L1004"/>
    </vehicle>
    <vehicle id="F09_3" depart="30.00" departLane="random">
        <route edges="L0511 L1117 L1723"/>
    </vehicle>
    <vehicle id="F10_3" depart="30.00" departLane="random">
        <route edges="L0612 L1218 L1824"/>
    </vehicle>
    <vehicle id="F11_3" depart="30.00" departLane="random">
        <route edges="L2418 L1812 L1206"/>
    </vehicle>
    <vehicle id="F01_11" depart="31.00" departLane="random">
        <route edges="L0107 L0713 L1319"/>
    </vehicle>
    <vehicle id="F13_8" depart="32.00" departLane="random">
        <route edges="L0612 L1211 L1110 L1009 L0908 L0807 L0713 L1319"/>
    </vehicle>
    <vehicle id="F00_10" depart="33.00" departLane="random">
        <route edges="L1913 L1307 L0701"/>
    </vehicle>
    <vehicle id="F04_10" depart="33.00" departLane="random">
        <route edges="L1314 L1415 L1516 L1617 L1718"/>
    </vehicle>
    <vehicle id="F01_12" depart="34.00" departLane="random">
        <route edges="L0107 L0713 L1319"/>
    </vehicle>
    <vehicle id="F13_9" depart="36.00" departLane="random">
        <route edges="L0612 L1211 L1110 L1009 L0908 L0807 L0713 L1319"/>
    </vehicle>
    <vehicle id="F00_11" depart="37.00" departLane="random">
        <route edges="L1913 L1307 L0701"/>
    </vehicle>
    <vehicle id="F01_13" depart="37.00" departLane="random">
        <route edges="L0107 L0713 L1319"/>
    </vehicle>
    <vehicle id="F04_11" depart="37.00" departLane="random">
        <route edges="L1314 L1415 L1516 L1617 L1718"/>
    </vehicle>
    <vehicle id="F00_12" depart="40.00" departLane="random">
        <route edges="L1913 L1307 L0701"/>
    </vehicle>
    <vehicle id="F01_14" depart="40.00" departLane="random">
        <route edges="L0107 L0713 L1319"/>
    </vehicle>
    <vehicle id="F02_4" depart="40.00" departLane="random">
        <route edges="L0102 L0203 L0304 L0405 L0506"/>
    </vehicle>
    <vehicle id="F03_4" depart="40.00" departLane="random">
        <route edges="L1211 L1110 L1009 L0908 L0807"/>
    </vehicle>
    <vehicle id="F04_12" depart="40.00" departLane="random">
        <route edges="L1314 L1415 L1516 L1617 L1718"/>
    </vehicle>
    <vehicle id="F05_4" depart="40.00" departLane="random">
        <route edges="L2423 L2322 L2221 L2120 L2019"/>
    </vehicle>
    <vehicle id="F06_4" depart="40.00" departLane="random">
        <route edges="L0208 L0814 L1420"/>
    </vehicle>
    <vehicle id="F075_4" depart="40.00" departLane="random">
        <route edges="L2115 L1509 L0903"/>
    </vehicle>
    <vehicle id="F07_4" depart="40.00" departLane="random">
        <route edges="L0309 L0915 L1521"/>
    </vehicle>
    <vehicle id="F08_4" depart="40.00" departLane="random">
        <route edges="L2216 L1610 L1004"/>
    </vehicle>
    <vehicle id="F09_4" depart="40.00" departLane="random">
        <route edges="L0511 L1117 L1723"/>
    </vehicle>
    <vehicle id="F10_4" depart="40.00" departLane="random">
        <route edges="L0612 L1218 L1824"/>
    </vehicle>
    <vehicle id="F11_4" depart="40.00" departLane="random">
        <route edges="L2418 L1812 L1206"/>
    </vehicle>
    <vehicle id="F13_10" depart="40.00" departLane="random">
        <route edges="L0612 L1211 L1110 L1009 L0908 L0807 L0713 L1319"/>
    </vehicle>
    <vehicle id="F00_13" depart="43.00" departLane="random">
        <route edges="L1913 L1307 L0701"/>
    </vehicle>
    <vehicle id="F01_15" depart="43.00" departLane="random">
        <route edges="L0107 L0713 L1319"/>
    </vehicle>
    <vehicle id="F04_13" depart="43.00" departLane="random">
        <route edges="L1314 L1415 L1516 L1617 L1718"/>
    </vehicle>
    <vehicle id="F13_11" depart="44.00" departLane="random">
        <route edges="L0612 L1211 L1110 L1009 L0908 L0807 L0713 L1319"/>
    </vehicle>
    <vehicle id="F01_16" depart="46.00" departLane="random">
        <route edges="L0107 L0713 L1319"/>
    </vehicle>
    <vehicle id="F00_14" depart="47.00" departLane="random">
        <route edges="L1913 L1307 L0701"/>
    </vehicle>
    <vehicle id="F04_14" depart="47.00" departLane="random">
        <route edges="L1314 L1415 L1516 L1617 L1718"/>
    </vehicle>
    <vehicle id="F13_12" depart="48.00" departLane="random">
        <route edges="L0612 L1211 L1110 L1009 L0908 L0807 L0713 L1319"/>
    </vehicle>
    <vehicle id="F01_17" depart="49.00" departLane="random">
        <route edges="L0107 L0713 L1319"/>
    </vehicle>
    <vehicle id="F00_15" depart="50.00" departLane="random">
        <route edges="L1913 L1307 L0701"/>
    </vehicle>
    <vehicle id="F02_5" depart="50.00" departLane="random">
        <route edges="L0102 L0203 L0304 L0405 L0506"/>
    </vehicle>
    <vehicle id="F03_5" depart="50.00" departLane="random">
        <route edges="L1211 L1110 L1009 L0908 L0807"/>
    </vehicle>
    <vehicle id="F04_15" depart="50.00" departLane="random">
        <route edges="L1314 L1415 L1516 L1617 L1718"/>
    </vehicle>
    <vehicle id="F05_5" depart="50.00" departLane="random">
        <route edges="L2423 L2322 L2221 L2120 L2019"/>
    </vehicle>
    <vehicle id="F06_5" depart="50.00" departLane="random">
        <route edges="L0208 L0814 L1420"/>
    </vehicle>
    <vehicle id="F075_5" depart="50.00" departLane="random">
        <route edges="L2115 L1509 L0903"/>
    </vehicle>
    <vehicle id="F07_5" depart="50.00" departLane="random">
        <route edges="L0309 L0915 L1521"/>
    </vehicle>
    <vehicle id="F08_5" depart="50.00" departLane="random">
        <route edges="L2216 L1610 L1004"/>
    </vehicle>
    <vehicle id="F09_5" depart="50.00" departLane="random">
        <route edges="L0511 L1117 L1723"/>
    </vehicle>
    <vehicle id="F10_5" depart="50.00" departLane="random">
        <route edges="L0612 L1218 L1824"/>
    </vehicle>
    <vehicle id="F11_5" depart="50.00" departLane="random">
        <route edges="L2418 L1812 L1206"/>
    </vehicle>
    <vehicle id="F01_18" depart="51.00" departLane="random">
        <route edges="L0107 L0713 L1319"/>
    </vehicle>
    <vehicle id="F13_13" depart="52.00" departLane="random">
        <route edges="L0612 L1211 L1110 L1009 L0908 L0807 L0713 L1319"/>
    </vehicle>
    <vehicle id="F00_16" depart="53.00" departLane="random">
        <route edges="L1913 L1307 L0701"/>
    </vehicle>
    <vehicle id="F04_16" depart="53.00" departLane="random">
        <route edges="L1314 L1415 L1516 L1617 L1718"/>
    </vehicle>
    <vehicle id="F01_19" depart="54.00" departLane="random">
        <route edges="L0107 L0713 L1319"/>
    </vehicle>
    <vehicle id="F13_14" depart="56.00" departLane="random">
        <route edges="L0612 L1211 L1110 L1009 L0908 L0807 L0713 L1319"/>
    </vehicle>
    <vehicle id="F00_17" depart="57.00" departLane="random">
        <route edges="L1913 L1307 L0701"/>
    </vehicle>
    <vehicle id="F01_20" depart="57.00" departLane="random">
        <route edges="L0107 L0713 L1319"/>
    </vehicle>
    <vehicle id="F04_17" depart="57.00" departLane="random">
        <route edges="L1314 L1415 L1516 L1617 L1718"/>
    </vehicle>
    <vehicle id="F00_18" depart="60.00" departLane="random">
        <route edges="L1913 L1307 L0701"/>
    </vehicle>
    <vehicle id="F01_21" depart="60.00" departLane="random">
        <route edges="L0107 L0713 L1319"/>
    </vehicle>
    <vehicle id="F02_6" depart="60.00" departLane="random">
        <route edges="L0102 L0203 L0304 L0405 L0506"/>
    </vehicle>
    <vehicle id="F03_6" depart="60.00" departLane="random">
        <route edges="L1211 L1110 L1009 L0908 L0807"/>
    </vehicle>
    <vehicle id="F04_18" depart="60.00" departLane="random">
        <route edges="L1314 L1415 L1516 L1617 L1718"/>
    </vehicle>
    <vehicle id="F05_6" depart="60.00" departLane="random">
        <route edges="L2423 L2322 L2221 L2120 L2019"/>
    </vehicle>
    <vehicle id="F06_6" depart="60.00" departLane="random">
        <route edges="L0208 L0814 L1420"/>
    </vehicle>
    <vehicle id="F075_6" depart="60.00" departLane="random">
        <route edges="L2115 L1509 L0903"/>
    </vehicle>
    <vehicle id="F07_6" depart="60.00" departLane="random">
        <route edges="L0309 L0915 L1521"/>
    </vehicle>
    <vehicle id="F08_6" depart="60.00" departLane="random">
        <route edges="L2216 L1610 L1004"/>
    </vehicle>
    <vehicle id="F09_6" depart="60.00" departLane="random">
        <route edges="L0511 L1117 L1723"/>
    </vehicle>
    <vehicle id="F10_6" depart="60.00" departLane="random">
        <route edges="L0612 L1218 L1824"/>
    </vehicle>
    <vehicle id="F11_6" depart="60.00" departLane="random">
        <route edges="L2418 L1812 L1206"/>
    </vehicle>
    <vehicle id="F13_15" depart="60.00" departLane="random">
        <route edges="L0612 L1211 L1110 L1009 L0908 L0807 L0713 L1319"/>
    </vehicle>
    <vehicle id="F00_19" depart="63.00" departLane="random">
        <route edges="L1913 L1307 L0701"/>
    </vehicle>
    <vehicle id="F01_22" depart="63.00" departLane="random">
        <route edges="L0107 L0713 L1319"/>
    </vehicle>
    <vehicle id="F04_19" depart="63.00" departLane="random">
        <route edges="L1314 L1415 L1516 L1617 L1718"/>
    </vehicle>
    <vehicle id="F13_16" depart="64.00" departLane="random">
        <route edges="L0612 L1211 L1110 L1009 L0908 L0807 L0713 L1319"/>
    </vehicle>
    <vehicle id="F01_23" depart="66.00" departLane="random">
        <route edges="L0107 L0713 L1319"/>
    </vehicle>
    <vehicle id="F00_20" depart="67.00" departLane="random">
        <route edges="L1913 L1307 L0701"/>
    </vehicle>
    <vehicle id="F04_20" depart="67.00" departLane="random">
        <route edges="L1314 L1415 L1516 L1617 L1718"/>
    </vehicle>
    <vehicle id="F13_17" depart="68.00" departLane="random">
        <route edges="L0612 L1211 L1110 L1009 L0908 L0807 L0713 L1319"/>
    </vehicle>
    <vehicle id="F01_24" depart="69.00" departLane="random">
        <route edges="L0107 L0713 L1319"/>
    </vehicle>
    <vehicle id="F00_21" depart="70.00" departLane="random">
        <route edges="L1913 L1307 L0701"/>
    </vehicle>
    <vehicle id="F02_7" depart="70.00" departLane="random">
        <route edges="L0102 L0203 L0304 L0405 L0506"/>
    </vehicle>
    <vehicle id="F03_7" depart="70.00" departLane="random">
        <route edges="L1211 L1110 L1009 L0908 L0807"/>
    </vehicle>
    <vehicle id="F04_21" depart="70.00" departLane="random">
        <route edges="L1314 L1415 L1516 L1617 L1718"/>
    </vehicle>
    <vehicle id="F05_7" depart="70.00" departLane="random">
        <route edges="L2423 L2322 L2221 L2120 L2019"/>
    </vehicle>
    <vehicle id="F06_7" depart="70.00" departLane="random">
        <route edges="L0208 L0814 L1420"/>
    </vehicle>
    <vehicle id="F075_7" depart="70.00" departLane="random">
        <route edges="L2115 L1509 L0903"/>
    </vehicle>
    <vehicle id="F07_7" depart="70.00" departLane="random">
        <route edges="L0309 L0915 L1521"/>
    </vehicle>
    <vehicle id="F08_7" depart="70.00" departLane="random">
        <route edges="L2216 L1610 L1004"/>
    </vehicle>
    <vehicle id="F09_7" depart="70.00" departLane="random">
        <route edges="L0511 L1117 L1723"/>
    </vehicle>
    <vehicle id="F10_7" depart="70.00" departLane="random">
        <route edges="L0612 L1218 L1824"/>
    </vehicle>
    <vehicle id="F11_7" depart="70.00" departLane="random">
        <route edges="L2418 L1812 L1206"/>
    </vehicle>
    <vehicle id="F01_25" depart="71.00" departLane="random">
        <route edges="L0107 L0713 L1319"/>
    </vehicle>
    <vehicle id="F13_18" depart="72.00" departLane="random">
        <route edges="L0612 L1211 L1110 L1009 L0908 L0807 L0713 L1319"/>
    </vehicle>
    <vehicle id="F00_22" depart="73.00" departLane="random">
        <route edges="L1913 L1307 L0701"/>
    </vehicle>
    <vehicle id="F04_22" depart="73.00" departLane="random">
        <route edges="L1314 L1415 L1516 L1617 L1718"/>
    </vehicle>
    <vehicle id="F01_26" depart="74.00" departLane="random">
        <route edges="L0107 L0713 L1319"/>
    </vehicle>
    <vehicle id="F13_19" depart="76.00" departLane="random">
        <route edges="L0612 L1211 L1110 L1009 L0908 L0807 L0713 L1319"/>
    </vehicle>
    <vehicle id="F00_23" depart="77.00" departLane="random">
        <route edges="L1913 L1307 L0701"/>
    </vehicle>
    <vehicle id="F01_27" depart="77.00" departLane="random">
        <route edges="L0107 L0713 L1319"/>
    </vehicle>
    <vehicle id="F04_23" depart="77.00" departLane="random">
        <route edges="L1314 L1415 L1516 L1617 L1718"/>
    </vehicle>
    <vehicle id="F00_24" depart="80.00" departLane="random">
        <route edges="L1913 L1307 L0701"/>
    </vehicle>
    <vehicle id="F01_28" depart="80.00" departLane="random">
        <route edges="L0107 L0713 L1319"/>
    </vehicle>
    <vehicle id="F02_8" depart="80.00" departLane="random">
        <route edges="L0102 L0203 L0304 L0405 L0506"/>
    </vehicle>
    <vehicle id="F03_8" depart="80.00" departLane="random">
        <route edges="L1211 L1110 L1009 L0908 L0807"/>
    </vehicle>
    <vehicle id="F04_24" depart="80.00" departLane="random">
        <route edges="L1314 L1415 L1516 L1617 L1718"/>
    </vehicle>
    <vehicle id="F05_8" depart="80.00" departLane="random">
        <route edges="L2423 L2322 L2221 L2120 L2019"/>
    </vehicle>
    <vehicle id="F06_8" depart="80.00" departLane="random">
        <route edges="L0208 L0814 L1420"/>
    </vehicle>
    <vehicle id="F075_8" depart="80.00" departLane="random">
        <route edges="L2115 L1509 L0903"/>
    </vehicle>
    <vehicle id="F07_8" depart="80.00" departLane="random">
        <route edges="L0309 L0915 L1521"/>
    </vehicle>
    <vehicle id="F08_8" depart="80.00" departLane="random">
        <route edges="L2216 L1610 L1004"/>
    </vehicle>
    <vehicle id="F09_8" depart="80.00" departLane="random">
        <route edges="L0511 L1117 L1723"/>
    </vehicle>
    <vehicle id="F10_8" depart="80.00" departLane="random">
        <route edges="L0612 L1218 L1824"/>
    </vehicle>
    <vehicle id="F11_8" depart="80.00" departLane="random">
        <route edges="L2418 L1812 L1206"/>
    </vehicle>
    <vehicle id="F13_20" depart="80.00" departLane="random">
        <route edges="L0612 L1211 L1110 L1009 L0908 L0807 L0713 L1319"/>
    </vehicle>
    <vehicle id="F00_25" depart="83.00" departLane="random">
        <route edges="L1913 L1307 L0701"/>
    </vehicle>
    <vehicle id="F01_29" depart="83.00" departLane="random">
        <route edges="L0107 L0713 L1319"/>
    </vehicle>
    <vehicle id="F04_25" depart="83.00" departLane="random">
        <route edges="L1314 L1415 L1516 L1617 L1718"/>
    </vehicle>
    <vehicle id="F13_21" depart="84.00" departLane="random">
        <route edges="L0612 L1211 L1110 L1009 L0908 L0807 L0713 L1319"/>
    </vehicle>
    <vehicle id="F01_30" depart="86.00" departLane="random">
        <route edges="L0107 L0713 L1319"/>
    </vehicle>
    <vehicle id="F00_26" depart="87.00" departLane="random">
        <route edges="L1913 L1307 L0701"/>
    </vehicle>
    <vehicle id="F04_26" depart="87.00" departLane="random">
        <route edges="L1314 L1415 L1516 L1617 L1718"/>
    </vehicle>
    <vehicle id="F13_22" depart="88.00" departLane="random">
        <route edges="L0612 L1211 L1110 L1009 L0908 L0807 L0713 L1319"/>
    </vehicle>
    <vehicle id="F01_31" depart="89.00" departLane="random">
        <route edges="L0107 L0713 L1319"/>
    </vehicle>
    <vehicle id="F00_27" depart="90.00" departLane="random">
        <route edges="L1913 L1307 L0701"/>
    </vehicle>
    <vehicle id="F02_9" depart="90.00" departLane="random">
        <route edges="L0102 L0203 L0304 L0405 L0506"/>
    </vehicle>
    <vehicle id="F03_9" depart="90.00" departLane="random">
        <route edges="L1211 L1110 L1009 L0908 L0807"/>
    </vehicle>
    <vehicle id="F04_27" depart="90.00" departLane="random">
        <route edges="L1314 L1415 L1516 L1617 L1718"/>
    </vehicle>
    <vehicle id="F05_9" depart="90.00" departLane="random">
        <route edges="L2423 L2322 L2221 L2120 L2019"/>
    </vehicle>
    <vehicle id="F06_9" depart="90.00" departLane="random">
        <route edges="L0208 L0814 L1420"/>
    </vehicle>
    <vehicle id="F075_9" depart="90.00" departLane="random">
        <route edges="L2115 L1509 L0903"/>
    </vehicle>
    <vehicle id="F07_9" depart="90.00" departLane="random">
        <route edges="L0309 L0915 L1521"/>
    </vehicle>
    <vehicle id="F08_9" depart="90.00" departLane="random">
        <route edges="L2216 L1610 L1004"/>
    </vehicle>
    <vehicle id="F09_9" depart="90.00" departLane="random">
        <route edges="L0511 L1117 L1723"/>
    </vehicle>
    <vehicle id="F10_9" depart="90.00" departLane="random">
        <route edges="L0612 L1218 L1824"/>
    </vehicle>
    <vehicle id="F11_9" depart="90.00" departLane="random">
        <route edges="L2418 L1812 L1206"/>
    </vehicle>
    <vehicle id="F01_32" depart="91.00" departLane="random">
        <route edges="L0107 L0713 L1319"/>
    </vehicle>
    <vehicle id="F13_23" depart="92.00" departLane="random">
        <route edges="L0612 L1211 L1110 L1009 L0908 L0807 L0713 L1319"/>
    </vehicle>
    <vehicle id="F00_28" depart="93.00" departLane="random">
        <route edges="L1913 L1307 L0701"/>
    </vehicle>
    <vehicle id="F04_28" depart="93.00" departLane="random">
        <route edges="L1314 L1415 L1516 L1617 L1718"/>
    </vehicle>
    <vehicle id="F01_33" depart="94.00" departLane="random">
        <route edges="L0107 L0713 L1319"/>
    </vehicle>
    <vehicle id="F13_24" depart="96.00" departLane="random">
        <route edges="L0612 L1211 L1110 L1009 L0908 L0807 L0713 L1319"/>
    </vehicle>
    <vehicle id="F00_29" depart="97.00" departLane="random">
        <route edges="L1913 L1307 L0701"/>
    </vehicle>
    <vehicle id="F01_34" depart="97.00" departLane="random">
        <route edges="L0107 L0713 L1319"/>
    </vehicle>
    <vehicle id="F04_29" depart="97.00" departLane="random">
        <route edges="L1314 L1415 L1516 L1617 L1718"/>
    </vehicle>
</routes>
