<?xml version="1.0"?>

<!-- generated on Wed Apr 17 17:58:44 2013 by SUMO duarouter Version 0.16.0
<?xml version="1.0" encoding="UTF-8"?>

<configuration xmlns:xsi="http://www.w3.org/2001/XMLSchema-instance" xsi:noNamespaceSchemaLocation="http://sumo.sf.net/xsd/duarouterConfiguration.xsd">

    <input>
        <net-file value="../grid6_4.net.xml"/>
        <flow-files value="grid6_4.flo.xml"/>
    </input>

    <output>
        <output-file value="grid6_4.rou.xml"/>
        <vtype-output value=""/>
    </output>

    <time>
        <begin value="0"/>
        <end value="200"/>
    </time>

</configuration>
-->

<routes xmlns:xsi="http://www.w3.org/2001/XMLSchema-instance" xsi:noNamespaceSchemaLocation="http://sumo.sf.net/xsd/routes_file.xsd">
    <vehicle id="F00_0" depart="0.00" departLane="best">
        <route edges="L1913 L1307 L0701"/>
    </vehicle>
    <vehicle id="F01_0" depart="0.00" departLane="best">
        <route edges="L0107 L0713 L1319"/>
    </vehicle>
    <vehicle id="F02_0" depart="0.00" departLane="best">
        <route edges="L0102 L0203 L0304 L0405 L0506"/>
    </vehicle>
    <vehicle id="F03_0" depart="0.00" departLane="best">
        <route edges="L1211 L1110 L1009 L0908 L0807"/>
    </vehicle>
    <vehicle id="F04_0" depart="0.00" departLane="best">
        <route edges="L1314 L1415 L1516 L1617 L1718"/>
    </vehicle>
    <vehicle id="F05_0" depart="0.00" departLane="best">
        <route edges="L2423 L2322 L2221 L2120 L2019"/>
    </vehicle>
    <vehicle id="F06_0" depart="0.00" departLane="best">
        <route edges="L0208 L0814 L1420"/>
    </vehicle>
    <vehicle id="F075_0" depart="0.00" departLane="best">
        <route edges="L2115 L1509 L0903"/>
    </vehicle>
    <vehicle id="F07_0" depart="0.00" departLane="best">
        <route edges="L0309 L0915 L1521"/>
    </vehicle>
    <vehicle id="F08_0" depart="0.00" departLane="best">
        <route edges="L2216 L1610 L1004"/>
    </vehicle>
    <vehicle id="F09_0" depart="0.00" departLane="best">
        <route edges="L0511 L1117 L1723"/>
    </vehicle>
    <vehicle id="F10_0" depart="0.00" departLane="best">
        <route edges="L0612 L1218 L1824"/>
    </vehicle>
    <vehicle id="F11_0" depart="0.00" departLane="best">
        <route edges="L1812 L1206"/>
    </vehicle>
    <vehicle id="F04_1" depart="2.00" departLane="best">
        <route edges="L1314 L1415 L1516 L1617 L1718"/>
    </vehicle>
    <vehicle id="F04_2" depart="4.00" departLane="best">
        <route edges="L1314 L1415 L1516 L1617 L1718"/>
    </vehicle>
    <vehicle id="F11_1" depart="4.00" departLane="best">
        <route edges="L1812 L1206"/>
    </vehicle>
    <vehicle id="F00_1" depart="5.00" departLane="best">
        <route edges="L1913 L1307 L0701"/>
    </vehicle>
    <vehicle id="F01_1" depart="6.00" departLane="best">
        <route edges="L0107 L0713 L1319"/>
    </vehicle>
    <vehicle id="F04_3" depart="6.00" departLane="best">
        <route edges="L1314 L1415 L1516 L1617 L1718"/>
    </vehicle>
    <vehicle id="F04_4" depart="9.00" departLane="best">
        <route edges="L1314 L1415 L1516 L1617 L1718"/>
    </vehicle>
    <vehicle id="F11_2" depart="9.00" departLane="best">
        <route edges="L1812 L1206"/>
    </vehicle>
    <vehicle id="F00_2" depart="10.00" departLane="best">
        <route edges="L1913 L1307 L0701"/>
    </vehicle>
    <vehicle id="F04_5" depart="11.00" departLane="best">
        <route edges="L1314 L1415 L1516 L1617 L1718"/>
    </vehicle>
    <vehicle id="F01_2" depart="12.00" departLane="best">
        <route edges="L0107 L0713 L1319"/>
    </vehicle>
    <vehicle id="F04_6" depart="13.00" departLane="best">
        <route edges="L1314 L1415 L1516 L1617 L1718"/>
    </vehicle>
    <vehicle id="F11_3" depart="13.00" departLane="best">
        <route edges="L1812 L1206"/>
    </vehicle>
    <vehicle id="F00_3" depart="15.00" departLane="best">
        <route edges="L1913 L1307 L0701"/>
    </vehicle>
    <vehicle id="F02_1" depart="15.00" departLane="best">
        <route edges="L0102 L0203 L0304 L0405 L0506"/>
    </vehicle>
    <vehicle id="F03_1" depart="15.00" departLane="best">
        <route edges="L1211 L1110 L1009 L0908 L0807"/>
    </vehicle>
    <vehicle id="F04_7" depart="15.00" departLane="best">
        <route edges="L1314 L1415 L1516 L1617 L1718"/>
    </vehicle>
    <vehicle id="F05_1" depart="15.00" departLane="best">
        <route edges="L2423 L2322 L2221 L2120 L2019"/>
    </vehicle>
    <vehicle id="F06_1" depart="15.00" departLane="best">
        <route edges="L0208 L0814 L1420"/>
    </vehicle>
    <vehicle id="F075_1" depart="15.00" departLane="best">
        <route edges="L2115 L1509 L0903"/>
    </vehicle>
    <vehicle id="F07_1" depart="15.00" departLane="best">
        <route edges="L0309 L0915 L1521"/>
    </vehicle>
    <vehicle id="F08_1" depart="15.00" departLane="best">
        <route edges="L2216 L1610 L1004"/>
    </vehicle>
    <vehicle id="F09_1" depart="15.00" departLane="best">
        <route edges="L0511 L1117 L1723"/>
    </vehicle>
    <vehicle id="F10_1" depart="15.00" departLane="best">
        <route edges="L0612 L1218 L1824"/>
    </vehicle>
    <vehicle id="F04_8" depart="17.00" departLane="best">
        <route edges="L1314 L1415 L1516 L1617 L1718"/>
    </vehicle>
    <vehicle id="F11_4" depart="17.00" departLane="best">
        <route edges="L1812 L1206"/>
    </vehicle>
    <vehicle id="F01_3" depart="18.00" departLane="best">
        <route edges="L0107 L0713 L1319"/>
    </vehicle>
    <vehicle id="F04_9" depart="19.00" departLane="best">
        <route edges="L1314 L1415 L1516 L1617 L1718"/>
    </vehicle>
    <vehicle id="F00_4" depart="20.00" departLane="best">
        <route edges="L1913 L1307 L0701"/>
    </vehicle>
    <vehicle id="F04_10" depart="21.00" departLane="best">
        <route edges="L1314 L1415 L1516 L1617 L1718"/>
    </vehicle>
    <vehicle id="F11_5" depart="21.00" departLane="best">
        <route edges="L1812 L1206"/>
    </vehicle>
    <vehicle id="F01_4" depart="24.00" departLane="best">
        <route edges="L0107 L0713 L1319"/>
    </vehicle>
    <vehicle id="F04_11" depart="24.00" departLane="best">
        <route edges="L1314 L1415 L1516 L1617 L1718"/>
    </vehicle>
    <vehicle id="F00_5" depart="25.00" departLane="best">
        <route edges="L1913 L1307 L0701"/>
    </vehicle>
    <vehicle id="rAmb_0" depart="25.00" color="0.00,1.00,0.00">
        <route color="0.00,1.00,0.00" edges="L1913 L1314 L1415 L1516 L1617 L1718 L1812 L1206"/>
    </vehicle>
    <vehicle id="F04_12" depart="26.00" departLane="best">
        <route edges="L1314 L1415 L1516 L1617 L1718"/>
    </vehicle>
    <vehicle id="F11_6" depart="26.00" departLane="best">
        <route edges="L1812 L1206"/>
    </vehicle>
    <vehicle id="F04_13" depart="28.00" departLane="best">
        <route edges="L1314 L1415 L1516 L1617 L1718"/>
    </vehicle>
    <vehicle id="F00_6" depart="30.00" departLane="best">
        <route edges="L1913 L1307 L0701"/>
    </vehicle>
    <vehicle id="F01_5" depart="30.00" departLane="best">
        <route edges="L0107 L0713 L1319"/>
    </vehicle>
    <vehicle id="F02_2" depart="30.00" departLane="best">
        <route edges="L0102 L0203 L0304 L0405 L0506"/>
    </vehicle>
    <vehicle id="F03_2" depart="30.00" departLane="best">
        <route edges="L1211 L1110 L1009 L0908 L0807"/>
    </vehicle>
    <vehicle id="F04_14" depart="30.00" departLane="best">
        <route edges="L1314 L1415 L1516 L1617 L1718"/>
    </vehicle>
    <vehicle id="F05_2" depart="30.00" departLane="best">
        <route edges="L2423 L2322 L2221 L2120 L2019"/>
    </vehicle>
    <vehicle id="F06_2" depart="30.00" departLane="best">
        <route edges="L0208 L0814 L1420"/>
    </vehicle>
    <vehicle id="F075_2" depart="30.00" departLane="best">
        <route edges="L2115 L1509 L0903"/>
    </vehicle>
    <vehicle id="F07_2" depart="30.00" departLane="best">
        <route edges="L0309 L0915 L1521"/>
    </vehicle>
    <vehicle id="F08_2" depart="30.00" departLane="best">
        <route edges="L2216 L1610 L1004"/>
    </vehicle>
    <vehicle id="F09_2" depart="30.00" departLane="best">
        <route edges="L0511 L1117 L1723"/>
    </vehicle>
    <vehicle id="F10_2" depart="30.00" departLane="best">
        <route edges="L0612 L1218 L1824"/>
    </vehicle>
    <vehicle id="F11_7" depart="30.00" departLane="best">
        <route edges="L1812 L1206"/>
    </vehicle>
    <vehicle id="F04_15" depart="32.00" departLane="best">
        <route edges="L1314 L1415 L1516 L1617 L1718"/>
    </vehicle>
    <vehicle id="F04_16" depart="34.00" departLane="best">
        <route edges="L1314 L1415 L1516 L1617 L1718"/>
    </vehicle>
    <vehicle id="F11_8" depart="34.00" departLane="best">
        <route edges="L1812 L1206"/>
    </vehicle>
    <vehicle id="F00_7" depart="35.00" departLane="best">
        <route edges="L1913 L1307 L0701"/>
    </vehicle>
    <vehicle id="F01_6" depart="36.00" departLane="best">
        <route edges="L0107 L0713 L1319"/>
    </vehicle>
    <vehicle id="F04_17" depart="36.00" departLane="best">
        <route edges="L1314 L1415 L1516 L1617 L1718"/>
    </vehicle>
    <vehicle id="F04_18" depart="39.00" departLane="best">
        <route edges="L1314 L1415 L1516 L1617 L1718"/>
    </vehicle>
    <vehicle id="F11_9" depart="39.00" departLane="best">
        <route edges="L1812 L1206"/>
    </vehicle>
    <vehicle id="F00_8" depart="40.00" departLane="best">
        <route edges="L1913 L1307 L0701"/>
    </vehicle>
    <vehicle id="F04_19" depart="41.00" departLane="best">
        <route edges="L1314 L1415 L1516 L1617 L1718"/>
    </vehicle>
    <vehicle id="F01_7" depart="42.00" departLane="best">
        <route edges="L0107 L0713 L1319"/>
    </vehicle>
    <vehicle id="F04_20" depart="43.00" departLane="best">
        <route edges="L1314 L1415 L1516 L1617 L1718"/>
    </vehicle>
    <vehicle id="F11_10" depart="43.00" departLane="best">
        <route edges="L1812 L1206"/>
    </vehicle>
    <vehicle id="F00_9" depart="45.00" departLane="best">
        <route edges="L1913 L1307 L0701"/>
    </vehicle>
    <vehicle id="F02_3" depart="45.00" departLane="best">
        <route edges="L0102 L0203 L0304 L0405 L0506"/>
    </vehicle>
    <vehicle id="F03_3" depart="45.00" departLane="best">
        <route edges="L1211 L1110 L1009 L0908 L0807"/>
    </vehicle>
    <vehicle id="F04_21" depart="45.00" departLane="best">
        <route edges="L1314 L1415 L1516 L1617 L1718"/>
    </vehicle>
    <vehicle id="F05_3" depart="45.00" departLane="best">
        <route edges="L2423 L2322 L2221 L2120 L2019"/>
    </vehicle>
    <vehicle id="F06_3" depart="45.00" departLane="best">
        <route edges="L0208 L0814 L1420"/>
    </vehicle>
    <vehicle id="F075_3" depart="45.00" departLane="best">
        <route edges="L2115 L1509 L0903"/>
    </vehicle>
    <vehicle id="F07_3" depart="45.00" departLane="best">
        <route edges="L0309 L0915 L1521"/>
    </vehicle>
    <vehicle id="F08_3" depart="45.00" departLane="best">
        <route edges="L2216 L1610 L1004"/>
    </vehicle>
    <vehicle id="F09_3" depart="45.00" departLane="best">
        <route edges="L0511 L1117 L1723"/>
    </vehicle>
    <vehicle id="F10_3" depart="45.00" departLane="best">
        <route edges="L0612 L1218 L1824"/>
    </vehicle>
    <vehicle id="F04_22" depart="47.00" departLane="best">
        <route edges="L1314 L1415 L1516 L1617 L1718"/>
    </vehicle>
    <vehicle id="F11_11" depart="47.00" departLane="best">
        <route edges="L1812 L1206"/>
    </vehicle>
    <vehicle id="F01_8" depart="48.00" departLane="best">
        <route edges="L0107 L0713 L1319"/>
    </vehicle>
    <vehicle id="F04_23" depart="49.00" departLane="best">
        <route edges="L1314 L1415 L1516 L1617 L1718"/>
    </vehicle>
    <vehicle id="F00_10" depart="50.00" departLane="best">
        <route edges="L1913 L1307 L0701"/>
    </vehicle>
    <vehicle id="F04_24" depart="51.00" departLane="best">
        <route edges="L1314 L1415 L1516 L1617 L1718"/>
    </vehicle>
    <vehicle id="F11_12" depart="51.00" departLane="best">
        <route edges="L1812 L1206"/>
    </vehicle>
    <vehicle id="F01_9" depart="54.00" departLane="best">
        <route edges="L0107 L0713 L1319"/>
    </vehicle>
    <vehicle id="F04_25" depart="54.00" departLane="best">
        <route edges="L1314 L1415 L1516 L1617 L1718"/>
    </vehicle>
    <vehicle id="F00_11" depart="55.00" departLane="best">
        <route edges="L1913 L1307 L0701"/>
    </vehicle>
    <vehicle id="F04_26" depart="56.00" departLane="best">
        <route edges="L1314 L1415 L1516 L1617 L1718"/>
    </vehicle>
    <vehicle id="F11_13" depart="56.00" departLane="best">
        <route edges="L1812 L1206"/>
    </vehicle>
    <vehicle id="F04_27" depart="58.00" departLane="best">
        <route edges="L1314 L1415 L1516 L1617 L1718"/>
    </vehicle>
    <vehicle id="F00_12" depart="60.00" departLane="best">
        <route edges="L1913 L1307 L0701"/>
    </vehicle>
    <vehicle id="F01_10" depart="60.00" departLane="best">
        <route edges="L0107 L0713 L1319"/>
    </vehicle>
    <vehicle id="F02_4" depart="60.00" departLane="best">
        <route edges="L0102 L0203 L0304 L0405 L0506"/>
    </vehicle>
    <vehicle id="F03_4" depart="60.00" departLane="best">
        <route edges="L1211 L1110 L1009 L0908 L0807"/>
    </vehicle>
    <vehicle id="F04_28" depart="60.00" departLane="best">
        <route edges="L1314 L1415 L1516 L1617 L1718"/>
    </vehicle>
    <vehicle id="F05_4" depart="60.00" departLane="best">
        <route edges="L2423 L2322 L2221 L2120 L2019"/>
    </vehicle>
    <vehicle id="F06_4" depart="60.00" departLane="best">
        <route edges="L0208 L0814 L1420"/>
    </vehicle>
    <vehicle id="F075_4" depart="60.00" departLane="best">
        <route edges="L2115 L1509 L0903"/>
    </vehicle>
    <vehicle id="F07_4" depart="60.00" departLane="best">
        <route edges="L0309 L0915 L1521"/>
    </vehicle>
    <vehicle id="F08_4" depart="60.00" departLane="best">
        <route edges="L2216 L1610 L1004"/>
    </vehicle>
    <vehicle id="F09_4" depart="60.00" departLane="best">
        <route edges="L0511 L1117 L1723"/>
    </vehicle>
    <vehicle id="F10_4" depart="60.00" departLane="best">
        <route edges="L0612 L1218 L1824"/>
    </vehicle>
    <vehicle id="F11_14" depart="60.00" departLane="best">
        <route edges="L1812 L1206"/>
    </vehicle>
    <vehicle id="F04_29" depart="62.00" departLane="best">
        <route edges="L1314 L1415 L1516 L1617 L1718"/>
    </vehicle>
    <vehicle id="F04_30" depart="64.00" departLane="best">
        <route edges="L1314 L1415 L1516 L1617 L1718"/>
    </vehicle>
    <vehicle id="F11_15" depart="64.00" departLane="best">
        <route edges="L1812 L1206"/>
    </vehicle>
    <vehicle id="F00_13" depart="65.00" departLane="best">
        <route edges="L1913 L1307 L0701"/>
    </vehicle>
    <vehicle id="F01_11" depart="66.00" departLane="best">
        <route edges="L0107 L0713 L1319"/>
    </vehicle>
    <vehicle id="F04_31" depart="66.00" departLane="best">
        <route edges="L1314 L1415 L1516 L1617 L1718"/>
    </vehicle>
    <vehicle id="F04_32" depart="69.00" departLane="best">
        <route edges="L1314 L1415 L1516 L1617 L1718"/>
    </vehicle>
    <vehicle id="F11_16" depart="69.00" departLane="best">
        <route edges="L1812 L1206"/>
    </vehicle>
    <vehicle id="F00_14" depart="70.00" departLane="best">
        <route edges="L1913 L1307 L0701"/>
    </vehicle>
    <vehicle id="F04_33" depart="71.00" departLane="best">
        <route edges="L1314 L1415 L1516 L1617 L1718"/>
    </vehicle>
    <vehicle id="F01_12" depart="72.00" departLane="best">
        <route edges="L0107 L0713 L1319"/>
    </vehicle>
    <vehicle id="F04_34" depart="73.00" departLane="best">
        <route edges="L1314 L1415 L1516 L1617 L1718"/>
    </vehicle>
    <vehicle id="F11_17" depart="73.00" departLane="best">
        <route edges="L1812 L1206"/>
    </vehicle>
    <vehicle id="F00_15" depart="75.00" departLane="best">
        <route edges="L1913 L1307 L0701"/>
    </vehicle>
    <vehicle id="F02_5" depart="75.00" departLane="best">
        <route edges="L0102 L0203 L0304 L0405 L0506"/>
    </vehicle>
    <vehicle id="F03_5" depart="75.00" departLane="best">
        <route edges="L1211 L1110 L1009 L0908 L0807"/>
    </vehicle>
    <vehicle id="F04_35" depart="75.00" departLane="best">
        <route edges="L1314 L1415 L1516 L1617 L1718"/>
    </vehicle>
    <vehicle id="F05_5" depart="75.00" departLane="best">
        <route edges="L2423 L2322 L2221 L2120 L2019"/>
    </vehicle>
    <vehicle id="F06_5" depart="75.00" departLane="best">
        <route edges="L0208 L0814 L1420"/>
    </vehicle>
    <vehicle id="F075_5" depart="75.00" departLane="best">
        <route edges="L2115 L1509 L0903"/>
    </vehicle>
    <vehicle id="F07_5" depart="75.00" departLane="best">
        <route edges="L0309 L0915 L1521"/>
    </vehicle>
    <vehicle id="F08_5" depart="75.00" departLane="best">
        <route edges="L2216 L1610 L1004"/>
    </vehicle>
    <vehicle id="F09_5" depart="75.00" departLane="best">
        <route edges="L0511 L1117 L1723"/>
    </vehicle>
    <vehicle id="F10_5" depart="75.00" departLane="best">
        <route edges="L0612 L1218 L1824"/>
    </vehicle>
    <vehicle id="F04_36" depart="77.00" departLane="best">
        <route edges="L1314 L1415 L1516 L1617 L1718"/>
    </vehicle>
    <vehicle id="F11_18" depart="77.00" departLane="best">
        <route edges="L1812 L1206"/>
    </vehicle>
    <vehicle id="F01_13" depart="78.00" departLane="best">
        <route edges="L0107 L0713 L1319"/>
    </vehicle>
    <vehicle id="F04_37" depart="79.00" departLane="best">
        <route edges="L1314 L1415 L1516 L1617 L1718"/>
    </vehicle>
    <vehicle id="F00_16" depart="80.00" departLane="best">
        <route edges="L1913 L1307 L0701"/>
    </vehicle>
    <vehicle id="F04_38" depart="81.00" departLane="best">
        <route edges="L1314 L1415 L1516 L1617 L1718"/>
    </vehicle>
    <vehicle id="F11_19" depart="81.00" departLane="best">
        <route edges="L1812 L1206"/>
    </vehicle>
    <vehicle id="F01_14" depart="84.00" departLane="best">
        <route edges="L0107 L0713 L1319"/>
    </vehicle>
    <vehicle id="F04_39" depart="84.00" departLane="best">
        <route edges="L1314 L1415 L1516 L1617 L1718"/>
    </vehicle>
    <vehicle id="F00_17" depart="85.00" departLane="best">
        <route edges="L1913 L1307 L0701"/>
    </vehicle>
    <vehicle id="F04_40" depart="86.00" departLane="best">
        <route edges="L1314 L1415 L1516 L1617 L1718"/>
    </vehicle>
    <vehicle id="F11_20" depart="86.00" departLane="best">
        <route edges="L1812 L1206"/>
    </vehicle>
    <vehicle id="F04_41" depart="88.00" departLane="best">
        <route edges="L1314 L1415 L1516 L1617 L1718"/>
    </vehicle>
    <vehicle id="F00_18" depart="90.00" departLane="best">
        <route edges="L1913 L1307 L0701"/>
    </vehicle>
    <vehicle id="F01_15" depart="90.00" departLane="best">
        <route edges="L0107 L0713 L1319"/>
    </vehicle>
    <vehicle id="F02_6" depart="90.00" departLane="best">
        <route edges="L0102 L0203 L0304 L0405 L0506"/>
    </vehicle>
    <vehicle id="F03_6" depart="90.00" departLane="best">
        <route edges="L1211 L1110 L1009 L0908 L0807"/>
    </vehicle>
    <vehicle id="F04_42" depart="90.00" departLane="best">
        <route edges="L1314 L1415 L1516 L1617 L1718"/>
    </vehicle>
    <vehicle id="F05_6" depart="90.00" departLane="best">
        <route edges="L2423 L2322 L2221 L2120 L2019"/>
    </vehicle>
    <vehicle id="F06_6" depart="90.00" departLane="best">
        <route edges="L0208 L0814 L1420"/>
    </vehicle>
    <vehicle id="F075_6" depart="90.00" departLane="best">
        <route edges="L2115 L1509 L0903"/>
    </vehicle>
    <vehicle id="F07_6" depart="90.00" departLane="best">
        <route edges="L0309 L0915 L1521"/>
    </vehicle>
    <vehicle id="F08_6" depart="90.00" departLane="best">
        <route edges="L2216 L1610 L1004"/>
    </vehicle>
    <vehicle id="F09_6" depart="90.00" departLane="best">
        <route edges="L0511 L1117 L1723"/>
    </vehicle>
    <vehicle id="F10_6" depart="90.00" departLane="best">
        <route edges="L0612 L1218 L1824"/>
    </vehicle>
    <vehicle id="F11_21" depart="90.00" departLane="best">
        <route edges="L1812 L1206"/>
    </vehicle>
    <vehicle id="F04_43" depart="92.00" departLane="best">
        <route edges="L1314 L1415 L1516 L1617 L1718"/>
    </vehicle>
    <vehicle id="F04_44" depart="94.00" departLane="best">
        <route edges="L1314 L1415 L1516 L1617 L1718"/>
    </vehicle>
    <vehicle id="F11_22" depart="94.00" departLane="best">
        <route edges="L1812 L1206"/>
    </vehicle>
    <vehicle id="F00_19" depart="95.00" departLane="best">
        <route edges="L1913 L1307 L0701"/>
    </vehicle>
    <vehicle id="F01_16" depart="96.00" departLane="best">
        <route edges="L0107 L0713 L1319"/>
    </vehicle>
    <vehicle id="F04_45" depart="96.00" departLane="best">
        <route edges="L1314 L1415 L1516 L1617 L1718"/>
    </vehicle>
    <vehicle id="F04_46" depart="99.00" departLane="best">
        <route edges="L1314 L1415 L1516 L1617 L1718"/>
    </vehicle>
    <vehicle id="F11_23" depart="99.00" departLane="best">
        <route edges="L1812 L1206"/>
    </vehicle>
    <vehicle id="F00_20" depart="100.00" departLane="best">
        <route edges="L1913 L1307 L0701"/>
    </vehicle>
    <vehicle id="F04_47" depart="101.00" departLane="best">
        <route edges="L1314 L1415 L1516 L1617 L1718"/>
    </vehicle>
    <vehicle id="F01_17" depart="102.00" departLane="best">
        <route edges="L0107 L0713 L1319"/>
    </vehicle>
    <vehicle id="F04_48" depart="103.00" departLane="best">
        <route edges="L1314 L1415 L1516 L1617 L1718"/>
    </vehicle>
    <vehicle id="F11_24" depart="103.00" departLane="best">
        <route edges="L1812 L1206"/>
    </vehicle>
    <vehicle id="F00_21" depart="105.00" departLane="best">
        <route edges="L1913 L1307 L0701"/>
    </vehicle>
    <vehicle id="F02_7" depart="105.00" departLane="best">
        <route edges="L0102 L0203 L0304 L0405 L0506"/>
    </vehicle>
    <vehicle id="F03_7" depart="105.00" departLane="best">
        <route edges="L1211 L1110 L1009 L0908 L0807"/>
    </vehicle>
    <vehicle id="F04_49" depart="105.00" departLane="best">
        <route edges="L1314 L1415 L1516 L1617 L1718"/>
    </vehicle>
    <vehicle id="F05_7" depart="105.00" departLane="best">
        <route edges="L2423 L2322 L2221 L2120 L2019"/>
    </vehicle>
    <vehicle id="F06_7" depart="105.00" departLane="best">
        <route edges="L0208 L0814 L1420"/>
    </vehicle>
    <vehicle id="F075_7" depart="105.00" departLane="best">
        <route edges="L2115 L1509 L0903"/>
    </vehicle>
    <vehicle id="F07_7" depart="105.00" departLane="best">
        <route edges="L0309 L0915 L1521"/>
    </vehicle>
    <vehicle id="F08_7" depart="105.00" departLane="best">
        <route edges="L2216 L1610 L1004"/>
    </vehicle>
    <vehicle id="F09_7" depart="105.00" departLane="best">
        <route edges="L0511 L1117 L1723"/>
    </vehicle>
    <vehicle id="F10_7" depart="105.00" departLane="best">
        <route edges="L0612 L1218 L1824"/>
    </vehicle>
    <vehicle id="F04_50" depart="107.00" departLane="best">
        <route edges="L1314 L1415 L1516 L1617 L1718"/>
    </vehicle>
    <vehicle id="F11_25" depart="107.00" departLane="best">
        <route edges="L1812 L1206"/>
    </vehicle>
    <vehicle id="F01_18" depart="108.00" departLane="best">
        <route edges="L0107 L0713 L1319"/>
    </vehicle>
    <vehicle id="F04_51" depart="109.00" departLane="best">
        <route edges="L1314 L1415 L1516 L1617 L1718"/>
    </vehicle>
    <vehicle id="F00_22" depart="110.00" departLane="best">
        <route edges="L1913 L1307 L0701"/>
    </vehicle>
    <vehicle id="F04_52" depart="111.00" departLane="best">
        <route edges="L1314 L1415 L1516 L1617 L1718"/>
    </vehicle>
    <vehicle id="F11_26" depart="111.00" departLane="best">
        <route edges="L1812 L1206"/>
    </vehicle>
    <vehicle id="F01_19" depart="114.00" departLane="best">
        <route edges="L0107 L0713 L1319"/>
    </vehicle>
    <vehicle id="F04_53" depart="114.00" departLane="best">
        <route edges="L1314 L1415 L1516 L1617 L1718"/>
    </vehicle>
    <vehicle id="F00_23" depart="115.00" departLane="best">
        <route edges="L1913 L1307 L0701"/>
    </vehicle>
    <vehicle id="F04_54" depart="116.00" departLane="best">
        <route edges="L1314 L1415 L1516 L1617 L1718"/>
    </vehicle>
    <vehicle id="F11_27" depart="116.00" departLane="best">
        <route edges="L1812 L1206"/>
    </vehicle>
    <vehicle id="F04_55" depart="118.00" departLane="best">
        <route edges="L1314 L1415 L1516 L1617 L1718"/>
    </vehicle>
    <vehicle id="F00_24" depart="120.00" departLane="best">
        <route edges="L1913 L1307 L0701"/>
    </vehicle>
    <vehicle id="F01_20" depart="120.00" departLane="best">
        <route edges="L0107 L0713 L1319"/>
    </vehicle>
    <vehicle id="F02_8" depart="120.00" departLane="best">
        <route edges="L0102 L0203 L0304 L0405 L0506"/>
    </vehicle>
    <vehicle id="F03_8" depart="120.00" departLane="best">
        <route edges="L1211 L1110 L1009 L0908 L0807"/>
    </vehicle>
    <vehicle id="F04_56" depart="120.00" departLane="best">
        <route edges="L1314 L1415 L1516 L1617 L1718"/>
    </vehicle>
    <vehicle id="F05_8" depart="120.00" departLane="best">
        <route edges="L2423 L2322 L2221 L2120 L2019"/>
    </vehicle>
    <vehicle id="F06_8" depart="120.00" departLane="best">
        <route edges="L0208 L0814 L1420"/>
    </vehicle>
    <vehicle id="F075_8" depart="120.00" departLane="best">
        <route edges="L2115 L1509 L0903"/>
    </vehicle>
    <vehicle id="F07_8" depart="120.00" departLane="best">
        <route edges="L0309 L0915 L1521"/>
    </vehicle>
    <vehicle id="F08_8" depart="120.00" departLane="best">
        <route edges="L2216 L1610 L1004"/>
    </vehicle>
    <vehicle id="F09_8" depart="120.00" departLane="best">
        <route edges="L0511 L1117 L1723"/>
    </vehicle>
    <vehicle id="F10_8" depart="120.00" departLane="best">
        <route edges="L0612 L1218 L1824"/>
    </vehicle>
    <vehicle id="F11_28" depart="120.00" departLane="best">
        <route edges="L1812 L1206"/>
    </vehicle>
    <vehicle id="F04_57" depart="122.00" departLane="best">
        <route edges="L1314 L1415 L1516 L1617 L1718"/>
    </vehicle>
    <vehicle id="F04_58" depart="124.00" departLane="best">
        <route edges="L1314 L1415 L1516 L1617 L1718"/>
    </vehicle>
    <vehicle id="F11_29" depart="124.00" departLane="best">
        <route edges="L1812 L1206"/>
    </vehicle>
    <vehicle id="F00_25" depart="125.00" departLane="best">
        <route edges="L1913 L1307 L0701"/>
    </vehicle>
    <vehicle id="F01_21" depart="126.00" departLane="best">
        <route edges="L0107 L0713 L1319"/>
    </vehicle>
    <vehicle id="F04_59" depart="126.00" departLane="best">
        <route edges="L1314 L1415 L1516 L1617 L1718"/>
    </vehicle>
    <vehicle id="F04_60" depart="129.00" departLane="best">
        <route edges="L1314 L1415 L1516 L1617 L1718"/>
    </vehicle>
    <vehicle id="F11_30" depart="129.00" departLane="best">
        <route edges="L1812 L1206"/>
    </vehicle>
    <vehicle id="F00_26" depart="130.00" departLane="best">
        <route edges="L1913 L1307 L0701"/>
    </vehicle>
    <vehicle id="F04_61" depart="131.00" departLane="best">
        <route edges="L1314 L1415 L1516 L1617 L1718"/>
    </vehicle>
    <vehicle id="F01_22" depart="132.00" departLane="best">
        <route edges="L0107 L0713 L1319"/>
    </vehicle>
    <vehicle id="F04_62" depart="133.00" departLane="best">
        <route edges="L1314 L1415 L1516 L1617 L1718"/>
    </vehicle>
    <vehicle id="F11_31" depart="133.00" departLane="best">
        <route edges="L1812 L1206"/>
    </vehicle>
    <vehicle id="F00_27" depart="135.00" departLane="best">
        <route edges="L1913 L1307 L0701"/>
    </vehicle>
    <vehicle id="F02_9" depart="135.00" departLane="best">
        <route edges="L0102 L0203 L0304 L0405 L0506"/>
    </vehicle>
    <vehicle id="F03_9" depart="135.00" departLane="best">
        <route edges="L1211 L1110 L1009 L0908 L0807"/>
    </vehicle>
    <vehicle id="F04_63" depart="135.00" departLane="best">
        <route edges="L1314 L1415 L1516 L1617 L1718"/>
    </vehicle>
    <vehicle id="F05_9" depart="135.00" departLane="best">
        <route edges="L2423 L2322 L2221 L2120 L2019"/>
    </vehicle>
    <vehicle id="F06_9" depart="135.00" departLane="best">
        <route edges="L0208 L0814 L1420"/>
    </vehicle>
    <vehicle id="F075_9" depart="135.00" departLane="best">
        <route edges="L2115 L1509 L0903"/>
    </vehicle>
    <vehicle id="F07_9" depart="135.00" departLane="best">
        <route edges="L0309 L0915 L1521"/>
    </vehicle>
    <vehicle id="F08_9" depart="135.00" departLane="best">
        <route edges="L2216 L1610 L1004"/>
    </vehicle>
    <vehicle id="F09_9" depart="135.00" departLane="best">
        <route edges="L0511 L1117 L1723"/>
    </vehicle>
    <vehicle id="F10_9" depart="135.00" departLane="best">
        <route edges="L0612 L1218 L1824"/>
    </vehicle>
    <vehicle id="F04_64" depart="137.00" departLane="best">
        <route edges="L1314 L1415 L1516 L1617 L1718"/>
    </vehicle>
    <vehicle id="F11_32" depart="137.00" departLane="best">
        <route edges="L1812 L1206"/>
    </vehicle>
    <vehicle id="F01_23" depart="138.00" departLane="best">
        <route edges="L0107 L0713 L1319"/>
    </vehicle>
    <vehicle id="F04_65" depart="139.00" departLane="best">
        <route edges="L1314 L1415 L1516 L1617 L1718"/>